                                  MODFLOW-NWT-SWR1 
      U.S. GEOLOGICAL SURVEY MODULAR FINITE-DIFFERENCE GROUNDWATER-FLOW MODEL
                            VERSION 1.0.9 07/01/2014
                    BASED ON MODFLOW-2005 VERSION 1.11.00 08/30/2013

 LIST FILE: 01_steady_stateMainProcess.list
                         UNIT    2

 OPENING 01_steady_stateMainProcess.dis
 FILE TYPE:DIS   UNIT   11   STATUS:OLD    
 FORMAT:FORMATTED              ACCESS:SEQUENTIAL          

 OPENING 01_steady_stateMainProcess.bas
 FILE TYPE:BAS6   UNIT   13   STATUS:OLD    
 FORMAT:FORMATTED              ACCESS:SEQUENTIAL          

 OPENING 01_steady_stateMainProcess.nwt
 FILE TYPE:NWT   UNIT   32   STATUS:OLD    
 FORMAT:FORMATTED              ACCESS:SEQUENTIAL          

 OPENING 01_steady_stateMainProcess.upw
 FILE TYPE:UPW   UNIT   31   STATUS:OLD    
 FORMAT:FORMATTED              ACCESS:SEQUENTIAL          

 OPENING 01_steady_stateMainProcess.oc
 FILE TYPE:OC   UNIT   14   STATUS:OLD    
 FORMAT:FORMATTED              ACCESS:SEQUENTIAL          

 OPENING 01_steady_stateMainProcess.hds
 FILE TYPE:DATA(BINARY)   UNIT   51   STATUS:REPLACE
 FORMAT:BINARY                 ACCESS:SEQUENTIAL          

 OPENING 01_steady_stateMainProcess.ddn
 FILE TYPE:DATA(BINARY)   UNIT   52   STATUS:REPLACE
 FORMAT:BINARY                 ACCESS:SEQUENTIAL          

 OPENING 01_steady_stateMainProcess.cbc
 FILE TYPE:DATA(BINARY)   UNIT   53   STATUS:REPLACE
 FORMAT:BINARY                 ACCESS:SEQUENTIAL          

 OPENING 01_steady_stateMainProcess.wel
 FILE TYPE:WEL   UNIT   20   STATUS:OLD    
 FORMAT:FORMATTED              ACCESS:SEQUENTIAL          

 OPENING 01_steady_stateMainProcess.ghb
 FILE TYPE:GHB   UNIT   23   STATUS:OLD    
 FORMAT:FORMATTED              ACCESS:SEQUENTIAL          

 OPENING 01_steady_stateMainProcess.rch
 FILE TYPE:RCH   UNIT   19   STATUS:OLD    
 FORMAT:FORMATTED              ACCESS:SEQUENTIAL          

 OPENING 01_steady_stateMainProcess.riv
 FILE TYPE:RIV   UNIT   18   STATUS:OLD    
 FORMAT:FORMATTED              ACCESS:SEQUENTIAL          

 BAS -- BASIC PACKAGE, VERSION 7, 5/2/2005 INPUT READ FROM UNIT   13
 
 MODFLOW was compiled using mixed precision
 Precision of REAL variables:           6
 Precision of DOUBLE PRECISION variables:          15

 DISCRETIZATION INPUT DATA READ FROM UNIT   11
 # Discretization file for MODFLOW, generated by Flopy.
    7 LAYERS        28 ROWS        16 COLUMNS
    1 STRESS PERIOD(S) IN SIMULATION
 MODEL TIME UNIT IS DAYS
 MODEL LENGTH UNIT IS METERS
  Confining bed flag for each layer:
   0   0   0   0   0   0   0

                     DELR =   5000.00    

                     DELC =   5000.00    



           TOP ELEVATION OF LAYER 1
 READING ON UNIT   11 WITH FORMAT: (16E15.6)           



             MODEL LAYER BOTTOM EL. FOR LAYER   1
 READING ON UNIT   11 WITH FORMAT: (16E15.6)           



             MODEL LAYER BOTTOM EL. FOR LAYER   2
 READING ON UNIT   11 WITH FORMAT: (16E15.6)           



             MODEL LAYER BOTTOM EL. FOR LAYER   3
 READING ON UNIT   11 WITH FORMAT: (16E15.6)           



             MODEL LAYER BOTTOM EL. FOR LAYER   4
 READING ON UNIT   11 WITH FORMAT: (16E15.6)           



             MODEL LAYER BOTTOM EL. FOR LAYER   5
 READING ON UNIT   11 WITH FORMAT: (16E15.6)           



             MODEL LAYER BOTTOM EL. FOR LAYER   6
 READING ON UNIT   11 WITH FORMAT: (16E15.6)           



             MODEL LAYER BOTTOM EL. FOR LAYER   7
 READING ON UNIT   11 WITH FORMAT: (16E15.6)           


 STRESS PERIOD     LENGTH       TIME STEPS     MULTIPLIER FOR DELT    SS FLAG
 ----------------------------------------------------------------------------
        1        1.0000000          1                    1.000         SS

 STEADY-STATE SIMULATION



 
 # Basic package file for MODFLOW, generated by Flopy.                           
 THE FREE FORMAT OPTION HAS BEEN SELECTED



                     BOUNDARY ARRAY FOR LAYER   1
 READING ON UNIT   13 WITH FORMAT: (16I10)             



                     BOUNDARY ARRAY FOR LAYER   2
 READING ON UNIT   13 WITH FORMAT: (16I10)             



                     BOUNDARY ARRAY FOR LAYER   3
 READING ON UNIT   13 WITH FORMAT: (16I10)             



                     BOUNDARY ARRAY FOR LAYER   4
 READING ON UNIT   13 WITH FORMAT: (16I10)             



                     BOUNDARY ARRAY FOR LAYER   5
 READING ON UNIT   13 WITH FORMAT: (16I10)             



                     BOUNDARY ARRAY FOR LAYER   6
 READING ON UNIT   13 WITH FORMAT: (16I10)             



                     BOUNDARY ARRAY FOR LAYER   7
 READING ON UNIT   13 WITH FORMAT: (16I10)             

 AQUIFER HEAD WILL BE SET TO  -999.99     AT ALL NO-FLOW NODES (IBOUND=0).



                       INITIAL HEAD FOR LAYER   1
 READING ON UNIT   13 WITH FORMAT: (16E15.6)           



                       INITIAL HEAD FOR LAYER   2
 READING ON UNIT   13 WITH FORMAT: (16E15.6)           



                       INITIAL HEAD FOR LAYER   3
 READING ON UNIT   13 WITH FORMAT: (16E15.6)           



                       INITIAL HEAD FOR LAYER   4
 READING ON UNIT   13 WITH FORMAT: (16E15.6)           



                       INITIAL HEAD FOR LAYER   5
 READING ON UNIT   13 WITH FORMAT: (16E15.6)           



                       INITIAL HEAD FOR LAYER   6
 READING ON UNIT   13 WITH FORMAT: (16E15.6)           



                       INITIAL HEAD FOR LAYER   7
 READING ON UNIT   13 WITH FORMAT: (16E15.6)           
 # Output control package file for MODFLOW, generated by Flopy.

 OUTPUT CONTROL IS SPECIFIED ONLY AT TIME STEPS FOR WHICH OUTPUT IS DESIRED
 COMPACT CELL-BY-CELL BUDGET FILES WILL BE WRITTEN
 AUXILIARY DATA WILL BE SAVED IN CELL-BY-CELL BUDGET FILES
 HEAD PRINT FORMAT CODE IS   0    DRAWDOWN PRINT FORMAT CODE IS   0
 HEADS WILL BE SAVED ON UNIT   51    DRAWDOWNS WILL BE SAVED ON UNIT   52
 # NWT for MODFLOW-NWT, generated by Flopy.

 NWT1 -- Newton Solver, VERSION 1.0.9, 07/01/2014
         INPUT READ FROM UNIT 32

 COMPLEX OPTION:
 DEFAULT SOLVER INPUT VALUES REFLECT STRONGLY NONLINEAR MODEL
 ***XMD linear solver will be used***
 
   CONVERGENCE CRITERION OF   0.100000E-03 FOR HEAD SOLUTION
   AND A TOLERANCE OF   0.100000E+02 FOR FLOW SOLUTION AND 
   A MAXIMUM OF ***** OUTER ITERATIONS. 


   D-B-D REDUCTION FACTOR OF    0.850000E+00 AND 
   A D-B-D INCREASE FACTOR OF    0.100000E-04 AND 
   A D-B-D RELAXATION OF    0.000000E+00 AND 
   A MOMENTUM FACTOR OF    0.100000E+00 .


   BACKTRACKING IS ACTIVE 
   THE MAXIMUM NUMBER OF BACKTRACKS IS    50 AND 
   THE BACKTRACKING TOLERANCE IS    0.110000E+01 AND
   THE BACKTRACKING REDUCTION FACTOR IS    0.700000E+00

 XMD -- LINEAR SOLUTION BY XMD PACKAGE VERSION 1.30
     BY MOTOMU IBARAKI, OHIO STATE UNIVERSITY, COLOMBUS, OH
                 INPUT READ FROM UNIT 32
 ACCELERATION METHOD                    (IACL) =         2
 NODE ORDERING FLAG                   (NORDER) =         1
 LEVEL OF FILL                         (LEVEL) =         5
 MAXIMUM NUMBER OF ORTHOGONALIZATIONS  (NORTH) =         7
 INDEX FOR USING REDUCED SYSTEM      (IREDSYS) =         1
 RESID. REDUCTION CONVERGE CRITERION  (RRCTOL) =  0.000000E+00
 INDEX FOR USING DROP TOLERANCE     (IDROPTOL) =         1
 DROP TOLERANCE VALUE                  (EPSRN) =  0.100000E-04
 CONVERGENCE CRITERIA OF           (HCLOSEXMD) =  0.100000E-04
 MAX. NUMBER OF LINEAR ITERATIONS  (MXITERXMD) =        50


 UPW1 -- UPSTREAM WEIGHTING FLOW PACKAGE, VERSION 1.0.6, 12/05/2012
         INPUT READ FROM UNIT 31

 # UPW for MODFLOW-NWT, generated by Flopy.
 CELL-BY-CELL FLOWS WILL BE SAVED ON UNIT   53
 No named parameters

   LAYER FLAGS:
 LAYER       LAYTYP          LAYAVG    CHANI           LAYVKA           LAYWET
 ---------------------------------------------------------------------------
    1             1             0     1.000E+00             0             0
    2             1             0     1.000E+00             0             0
    3             1             0     1.000E+00             0             0
    4             1             0     1.000E+00             0             0
    5             1             0     1.000E+00             0             0
    6             1             0     1.000E+00             0             0
    7             1             0     1.000E+00             0             0

   INTERPRETATION OF LAYER FLAGS:
                        INTERBLOCK     HORIZONTAL    DATA IN
         LAYER TYPE   TRANSMISSIVITY   ANISOTROPY   ARRAY VKA   WETTABILITY
 LAYER   (LAYTYP)        (LAYAVG)      (CHANI)     (LAYVKA)       (LAYWET)
 ---------------------------------------------------------------------------
    1   CONVERTIBLE      HARMONIC     1.000E+00    VERTICAL K  NON-WETTABLE
    2   CONVERTIBLE      HARMONIC     1.000E+00    VERTICAL K  NON-WETTABLE
    3   CONVERTIBLE      HARMONIC     1.000E+00    VERTICAL K  NON-WETTABLE
    4   CONVERTIBLE      HARMONIC     1.000E+00    VERTICAL K  NON-WETTABLE
    5   CONVERTIBLE      HARMONIC     1.000E+00    VERTICAL K  NON-WETTABLE
    6   CONVERTIBLE      HARMONIC     1.000E+00    VERTICAL K  NON-WETTABLE
    7   CONVERTIBLE      HARMONIC     1.000E+00    VERTICAL K  NON-WETTABLE



              HYD. COND. ALONG ROWS FOR LAYER   1
 READING ON UNIT   31 WITH FORMAT: (16E15.6)           



                VERTICAL HYD. COND. FOR LAYER   1
 READING ON UNIT   31 WITH FORMAT: (16E15.6)           



              HYD. COND. ALONG ROWS FOR LAYER   2
 READING ON UNIT   31 WITH FORMAT: (16E15.6)           



                VERTICAL HYD. COND. FOR LAYER   2
 READING ON UNIT   31 WITH FORMAT: (16E15.6)           



              HYD. COND. ALONG ROWS FOR LAYER   3
 READING ON UNIT   31 WITH FORMAT: (16E15.6)           



                VERTICAL HYD. COND. FOR LAYER   3
 READING ON UNIT   31 WITH FORMAT: (16E15.6)           



              HYD. COND. ALONG ROWS FOR LAYER   4
 READING ON UNIT   31 WITH FORMAT: (16E15.6)           



                VERTICAL HYD. COND. FOR LAYER   4
 READING ON UNIT   31 WITH FORMAT: (16E15.6)           



              HYD. COND. ALONG ROWS FOR LAYER   5
 READING ON UNIT   31 WITH FORMAT: (16E15.6)           



                VERTICAL HYD. COND. FOR LAYER   5
 READING ON UNIT   31 WITH FORMAT: (16E15.6)           



              HYD. COND. ALONG ROWS FOR LAYER   6
 READING ON UNIT   31 WITH FORMAT: (16E15.6)           



                VERTICAL HYD. COND. FOR LAYER   6
 READING ON UNIT   31 WITH FORMAT: (16E15.6)           



              HYD. COND. ALONG ROWS FOR LAYER   7
 READING ON UNIT   31 WITH FORMAT: (16E15.6)           



                VERTICAL HYD. COND. FOR LAYER   7
 READING ON UNIT   31 WITH FORMAT: (16E15.6)           

 WEL -- WELL PACKAGE, VERSION 1.0.6, 12/05/2012 INPUT READ FROM UNIT   20
 # Well file for MODFLOW, generated by Flopy.
 No named parameters
 MAXIMUM OF     26 ACTIVE WELLS AT ONE TIME
 CELL-BY-CELL FLOWS WILL BE SAVED ON UNIT   53
 No named parameters
  PHIRAMP WILL BE SET TO A DEFAULT VALUE OF 0.05
  WELLS WITH REDUCED PUMPING WILL BE REPORTED TO THE MAIN LISTING FILE


     0 Well parameters

 RIV -- RIVER PACKAGE, VERSION 7, 5/2/2005 INPUT READ FROM UNIT   18
 # RIV for MODFLOW, generated by Flopy.
 No named parameters
 MAXIMUM OF     41 ACTIVE RIVER REACHES AT ONE TIME
 CELL-BY-CELL FLOWS WILL BE SAVED ON UNIT   53


     0 River parameters

 GHB -- GENERAL-HEAD BOUNDARY PACKAGE, VERSION 7, 5/2/2005
         INPUT READ FROM UNIT   23
 # GHB for MODFLOW, generated by Flopy.
 No named parameters
 MAXIMUM OF    231 ACTIVE GHB CELLS AT ONE TIME
 CELL-BY-CELL FLOWS WILL BE SAVED ON UNIT   53


     0 GHB parameters

 RCH -- RECHARGE PACKAGE, VERSION 7, 5/2/2005 INPUT READ FROM UNIT   19
 # RCH for MODFLOW, generated by Flopy.
 No named parameters
 OPTION 3 -- RECHARGE TO HIGHEST ACTIVE NODE IN EACH VERTICAL COLUMN
 CELL-BY-CELL FLOWS WILL BE SAVED ON UNIT   53


     0 Recharge parameters
1
                            STRESS PERIOD NO.    1, LENGTH =  1.0000000    
                            -----------------------------------------------

                              NUMBER OF TIME STEPS =     1

                               MULTIPLIER FOR DELT =     1.000

                            INITIAL TIME STEP SIZE =  1.0000000    

 WELL NO.  LAYER   ROW   COL   STRESS RATE         
 --------------------------------------------------
      1      1      8      4       0.000    
      2      2      8      4       0.000    
      3      3      8      4       0.000    
      4      2      5      5       0.000    
      5      2      5      5       0.000    
      6      5     14      8       0.000    
      7      3     17      8       0.000    
      8      7     17      8       0.000    
      9      7     18      8       0.000    
     10      7     13      9       0.000    
     11      7     14      9       0.000    
     12      6     14      9       0.000    
     13      7     14      9       0.000    
     14      7     14      9       0.000    
     15      6     15      9       0.000    
     16      1     10     10       0.000    
     17      4     10     10       0.000    
     18      3     12     10       0.000    
     19      3      9     11       0.000    
     20      4     11     12       0.000    
     21      3     17     12       0.000    
     22      4     17     13       0.000    
     23      1     15     14       0.000    
     24      7     15     14       0.000    
     25      3     16     14       0.000    
     26      7     16     14       0.000    

     26 WELLS

 REACH NO.  LAYER   ROW   COL     STAGE      CONDUCTANCE     BOTTOM EL.         
 -------------------------------------------------------------------------------
      1      1     24      6       168.7           221.2           168.6    
      2      1     19      7       142.2           204.1           142.1    
      3      1     20      7       149.9           4628.           149.8    
      4      1     21      7       154.7           4604.           154.6    
      5      1     22      7       170.1           3943.           170.0    
      6      1     23      7       180.0           4154.           179.9    
      7      1     24      7       184.6           4739.           184.5    
      8      1     16      8       124.1           208.9           124.0    
      9      1     17      8       130.0           6414.           129.9    
     10      1     18      8       131.0           7145.           130.9    
     11      1     19      8       133.8           5336.           133.7    
     12      1     20      8       149.5           163.5           149.4    
     13      1     15      9       122.1           4219.           122.0    
     14      1     16      9       125.4           7190.           125.3    
     15      1     17      9       130.9           779.9           130.8    
     16      1     18      9       141.4           384.2           141.3    
     17      1      8     10       92.49           1209.           92.40    
     18      1      9     10       98.88           5070.           98.78    
     19      1     10     10       98.58           2034.           98.48    
     20      1     11     10       102.5           1564.           102.4    
     21      1     12     10       106.2           6680.           106.1    
     22      1     13     10       111.8           6071.           111.7    
     23      1     14     10       115.9           4887.           115.8    
     24      1     15     10       126.6           2415.           126.5    
     25      1      9     11       96.23           2067.           96.13    
     26      1     10     11       99.02           4427.           98.92    
     27      1     11     11       102.2           5263.           102.1    
     28      1      1      2       79.10           20.08           79.00    
     29      1      1      3       80.97           2490.           80.87    
     30      1      2      3       80.96           309.9           80.86    
     31      1      3      4       83.23           2256.           83.13    
     32      1      4      4       83.94           1025.           83.84    
     33      1      5      5       84.30           901.7           84.20    
     34      1      5      6       83.65           2589.           83.55    
     35      1      6      6       87.62           491.3           87.52    
     36      1      7      7       91.05           64.40           90.95    
     37      1      7      8       91.15           3073.           91.05    
     38      1      8      8       94.24           164.5           94.14    
     39      1      8      9       95.66           723.3           95.56    
     40      1      8     10       92.49           2227.           92.39    
     41      1      9     11       96.23           580.2           96.13    

     41 RIVER REACHES

 BOUND. NO. LAYER   ROW   COL     STAGE      CONDUCTANCE         
 ----------------------------------------------------------------
      1      1      1      2       79.12           19.76    
      2      2      1      2       79.12           94.31    
      3      3      1      2       79.12           47.15    
      4      4      1      2       79.12           45.61    
      5      5      1      2       79.12           26.33    
      6      6      1      2       79.12           330.4    
      7      7      1      2       79.12           227.9    
      8      1      1      3       80.99           8.125    
      9      2      1      3       80.99           113.6    
     10      3      1      3       80.99           56.80    
     11      4      1      3       80.99           58.63    
     12      5      1      3       80.99           14.66    
     13      6      1      3       80.99           399.4    
     14      7      1      3       80.99           25.00    
     15      1      2      3       80.98           7.749    
     16      2      2      3       80.98           108.7    
     17      3      2      3       80.98           54.33    
     18      4      2      3       80.98           84.15    
     19      5      2      3       80.98           21.04    
     20      6      2      3       80.98           330.3    
     21      7      2      3       80.98           243.3    
     22      1      3      4       83.25           18.87    
     23      2      3      4       83.25           128.7    
     24      3      3      4       83.25           64.37    
     25      4      3      4       83.25           75.97    
     26      5      3      4       83.25           18.99    
     27      6      3      4       83.25           243.6    
     28      7      3      4       83.25           223.2    
     29      1      4      4       83.96           7.500    
     30      2      4      4       83.96           160.5    
     31      3      4      4       83.96           80.24    
     32      4      4      4       83.96           41.71    
     33      5      4      4       83.96           10.43    
     34      6      4      4       83.96           154.5    
     35      7      4      4       83.96           188.8    
     36      1      5      5       84.32           7.500    
     37      2      5      5       84.32           179.2    
     38      3      5      5       84.32           89.62    
     39      4      5      5       84.32           61.66    
     40      5      5      5       84.32           15.41    
     41      6      5      5       84.32           136.8    
     42      7      5      5       84.32           201.5    
     43      1      5      6       83.67           85.81    
     44      2      5      6       83.67           85.81    
     45      3      5      6       83.67           85.81    
     46      4      5      6       83.67           81.54    
     47      5      5      6       83.67           20.38    
     48      6      5      6       83.67           125.3    
     49      7      5      6       83.67           199.5    
     50      1      6      6       87.64           78.25    
     51      2      6      6       87.64           78.25    
     52      3      6      6       87.64           78.25    
     53      4      6      6       87.64           77.02    
     54      5      6      6       87.64           19.26    
     55      6      6      6       87.64           2.500    
     56      7      6      6       87.64           145.1    
     57      1      7      7       91.07           74.57    
     58      2      7      7       91.07           74.57    
     59      3      7      7       91.07           74.57    
     60      4      7      7       91.07           18.77    
     61      5      7      7       91.07           4.693    
     62      6      7      7       91.07           97.70    
     63      7      7      7       91.07           16.28    
     64      1      7      8       91.17           12.24    
     65      2      7      8       91.17           132.0    
     66      3      7      8       91.17           66.00    
     67      4      7      8       91.17           156.8    
     68      5      7      8       91.17           39.21    
     69      6      7      8       91.17           18.16    
     70      7      7      8       91.17           177.8    
     71      1      8      8       94.26           62.05    
     72      2      8      8       94.26           62.05    
     73      3      8      8       94.26           62.05    
     74      4      8      8       94.26           82.30    
     75      5      8      8       94.26           20.58    
     76      6      8      8       94.26           99.93    
     77      7      8      8       94.26           165.0    
     78      1      8      9       95.68           93.59    
     79      2      8      9       95.68           93.59    
     80      3      8      9       95.68           93.59    
     81      4      8      9       95.68           57.69    
     82      5      8      9       95.68           14.42    
     83      6      8      9       95.68           97.43    
     84      7      8      9       95.68           187.1    
     85      1      8     10       92.51           17.71    
     86      2      8     10       92.51           130.1    
     87      3      8     10       92.51           65.07    
     88      4      8     10       92.51           50.35    
     89      5      8     10       92.51           12.59    
     90      6      8     10       92.51           230.7    
     91      7      8     10       92.51           224.8    
     92      1      9     11       96.25           78.75    
     93      2      9     11       96.25           78.75    
     94      3      9     11       96.25           78.75    
     95      4      9     11       96.25           35.06    
     96      5      9     11       96.25           8.764    
     97      6      9     11       96.25           134.5    
     98      7      9     11       96.25           419.7    
     99      1      6      1       104.6           418.9    
    100      2      6      1       104.6           137.5    
    101      3      6      1       104.6           68.76    
    102      4      6      1       104.6           68.76    
    103      5      6      1       104.6           68.76    
    104      6      6      1       104.6           68.76    
    105      7      6      1       104.6           68.76    
    106      1      7      1       96.14           101.3    
    107      2      7      1       96.14           101.3    
    108      3      7      1       96.14           101.3    
    109      4      7      1       96.14           251.4    
    110      5      7      1       96.14           62.84    
    111      6      7      1       96.14           62.84    
    112      7      7      1       96.14           62.84    
    113      1      8      1       99.81           472.1    
    114      2      8      1       99.81           472.1    
    115      3      8      1       99.81           472.1    
    116      4      8      1       99.81           472.1    
    117      5      8      1       99.81           472.1    
    118      6      8      1       99.81           472.1    
    119      7      8      1       99.81           472.1    
    120      1      1      2       79.12           261.2    
    121      2      1      2       79.12           1247.    
    122      3      1      2       79.12           623.4    
    123      4      1      2       79.12           602.9    
    124      5      1      2       79.12           348.1    
    125      6      1      2       79.12           4368.    
    126      7      1      2       79.12           3013.    
    127      1      3      2       81.57           791.6    
    128      2      3      2       81.57           791.6    
    129      3      3      2       81.57           791.6    
    130      4      3      2       81.57           1071.    
    131      5      3      2       81.57           267.7    
    132      6      3      2       81.57           3731.    
    133      7      3      2       81.57           3010.    
    134      1      4      2       82.42           910.2    
    135      2      4      2       82.42           910.2    
    136      3      4      2       82.42           910.2    
    137      4      4      2       82.42           887.6    
    138      5      4      2       82.42           221.9    
    139      6      4      2       82.42           3005.    
    140      7      4      2       82.42           2795.    
    141      1      5      2       82.14           175.5    
    142      2      5      2       82.14           1900.    
    143      3      5      2       82.14           949.8    
    144      4      5      2       82.14           745.3    
    145      5      5      2       82.14           186.3    
    146      6      5      2       82.14           64.58    
    147      7      5      2       82.14           1778.    
    148      1      9      2       94.69           97.30    
    149      2      9      2       94.69           97.30    
    150      3      9      2       94.69           97.30    
    151      4      9      2       94.69           248.9    
    152      5      9      2       94.69           62.23    
    153      6      9      2       94.69           62.23    
    154      7      9      2       94.69           62.23    
    155      1     10      2       93.04           180.8    
    156      2     10      2       93.04           180.8    
    157      3     10      2       93.04           180.8    
    158      4     10      2       93.04           300.4    
    159      5     10      2       93.04           75.10    
    160      6     10      2       93.04           75.10    
    161      7     10      2       93.04           75.10    
    162      1     11      2       98.42           734.6    
    163      2     11      2       98.42           734.6    
    164      3     11      2       98.42           734.6    
    165      4     11      2       98.42           28.09    
    166      5     11      2       98.42           7.022    
    167      6     11      2       98.42           974.1    
    168      7     11      2       98.42           162.4    
    169      1     12      2       97.73           717.9    
    170      2     12      2       97.73           717.9    
    171      3     12      2       97.73           717.9    
    172      4     12      2       97.73           507.8    
    173      5     12      2       97.73           126.9    
    174      6     12      2       97.73           653.9    
    175      7     12      2       97.73           1570.    
    176      1     15      3       109.6           168.5    
    177      2     15      3       109.6           120.3    
    178      3     15      3       109.6           60.13    
    179      4     15      3       109.6           260.6    
    180      5     15      3       109.6           65.16    
    181      6     15      3       109.6           65.16    
    182      7     15      3       109.6           65.16    
    183      1     16      3       108.9           522.0    
    184      2     16      3       108.9           522.0    
    185      3     16      3       108.9           522.0    
    186      4     16      3       108.9           22.03    
    187      5     16      3       108.9           5.508    
    188      6     16      3       108.9           5.508    
    189      7     16      3       108.9           906.2    
    190      1     10     13       97.16           891.9    
    191      2     10     13       97.16           891.9    
    192      3     10     13       97.16           891.9    
    193      4     10     13       97.16           970.8    
    194      5     10     13       97.16           242.7    
    195      6     10     13       97.16           2008.    
    196      7     10     13       97.16           2463.    
    197      1     11     13       99.12           783.9    
    198      2     11     13       99.12           783.9    
    199      3     11     13       99.12           783.9    
    200      4     11     13       99.12           895.0    
    201      5     11     13       99.12           223.8    
    202      6     11     13       99.12           1977.    
    203      7     11     13       99.12           2301.    
    204      1     12     13       101.2           672.1    
    205      2     12     13       101.2           672.1    
    206      3     12     13       101.2           672.1    
    207      4     12     13       101.2           990.8    
    208      5     12     13       101.2           247.7    
    209      6     12     13       101.2           567.8    
    210      7     12     13       101.2           1717.    
    211      1     15     14       105.0           872.2    
    212      2     15     14       105.0           872.2    
    213      3     15     14       105.0           872.2    
    214      4     15     14       105.0           162.0    
    215      5     15     14       105.0           40.50    
    216      6     15     14       105.0           369.6    
    217      7     15     14       105.0           1488.    
    218      1     17     15       108.7           358.2    
    219      2     17     15       108.7           358.2    
    220      3     17     15       108.7           358.2    
    221      4     17     15       108.7           415.7    
    222      5     17     15       108.7           103.9    
    223      6     17     15       108.7           103.9    
    224      7     17     15       108.7           103.9    
    225      1     18     15       120.5           486.4    
    226      2     18     15       120.5           486.4    
    227      3     18     15       120.5           486.4    
    228      4     18     15       120.5           486.4    
    229      5     18     15       120.5           486.4    
    230      6     18     15       120.5           486.4    
    231      7     18     15       120.5           486.4    

    231 GHB CELLS



                           RECHARGE
 READING ON UNIT   19 WITH FORMAT: (16E15.6)           
 
 SOLVING FOR HEAD 

    ------------------------------------------------
       NWT REQUIRED          191 OUTER ITERATIONS 
       AND A TOTAL OF        752 INNER ITERATIONS.
    ------------------------------------------------

 OUTPUT CONTROL FOR STRESS PERIOD    1   TIME STEP    1
    SAVE HEAD FOR ALL LAYERS
    PRINT BUDGET
    SAVE BUDGET
 UBDSV2 SAVING "   CONSTANT HEAD" ON UNIT  53 AT TIME STEP  1, STRESS PERIOD   1
 UBDSV1 SAVING "FLOW RIGHT FACE " ON UNIT  53 AT TIME STEP  1, STRESS PERIOD   1
 UBDSV1 SAVING "FLOW FRONT FACE " ON UNIT  53 AT TIME STEP  1, STRESS PERIOD   1
 UBDSV1 SAVING "FLOW LOWER FACE " ON UNIT  53 AT TIME STEP  1, STRESS PERIOD   1
 UBDSV4 SAVING "           WELLS" ON UNIT  53 AT TIME STEP  1, STRESS PERIOD   1
 UBDSV4 SAVING "   RIVER LEAKAGE" ON UNIT  53 AT TIME STEP  1, STRESS PERIOD   1
 UBDSV4 SAVING " HEAD DEP BOUNDS" ON UNIT  53 AT TIME STEP  1, STRESS PERIOD   1
 UBDSV3 SAVING "        RECHARGE" ON UNIT  53 AT TIME STEP  1, STRESS PERIOD   1

 HEAD WILL BE SAVED ON UNIT   51 AT END OF TIME STEP    1, STRESS PERIOD    1
1
  VOLUMETRIC BUDGET FOR ENTIRE MODEL AT END OF TIME STEP    1, STRESS PERIOD   1
  ------------------------------------------------------------------------------

     CUMULATIVE VOLUMES      L**3       RATES FOR THIS TIME STEP      L**3/T
     ------------------                 ------------------------

           IN:                                      IN:
           ---                                      ---
             STORAGE =           0.0000               STORAGE =           0.0000
       CONSTANT HEAD =           0.0000         CONSTANT HEAD =           0.0000
               WELLS =           0.0000                 WELLS =           0.0000
       RIVER LEAKAGE =        9909.8232         RIVER LEAKAGE =        9909.8232
     HEAD DEP BOUNDS =       24202.6074       HEAD DEP BOUNDS =       24202.6074
            RECHARGE =        5419.8574              RECHARGE =        5419.8574

            TOTAL IN =       39532.2891              TOTAL IN =       39532.2891

          OUT:                                     OUT:
          ----                                     ----
             STORAGE =           0.0000               STORAGE =           0.0000
       CONSTANT HEAD =           0.0000         CONSTANT HEAD =           0.0000
               WELLS =           0.0000                 WELLS =           0.0000
       RIVER LEAKAGE =       13578.1045         RIVER LEAKAGE =       13578.1045
     HEAD DEP BOUNDS =       25954.1836       HEAD DEP BOUNDS =       25954.1836
            RECHARGE =           0.0000              RECHARGE =           0.0000

           TOTAL OUT =       39532.2891             TOTAL OUT =       39532.2891

            IN - OUT =           0.0000              IN - OUT =           0.0000

 PERCENT DISCREPANCY =           0.00     PERCENT DISCREPANCY =           0.00






         TIME SUMMARY AT END OF TIME STEP    1 IN STRESS PERIOD    1
                    SECONDS     MINUTES      HOURS       DAYS        YEARS
                    -----------------------------------------------------------
   TIME STEP LENGTH  86400.      1440.0      24.000     1.00000     2.73785E-03
 STRESS PERIOD TIME  86400.      1440.0      24.000     1.00000     2.73785E-03
         TOTAL TIME  86400.      1440.0      24.000     1.00000     2.73785E-03
1

 Run end date and time (yyyy/mm/dd hh:mm:ss): 2016/09/13 13:51:46
 Elapsed run time:  0.389 Seconds

