                                  MODFLOW-NWT-SWR1 
      U.S. GEOLOGICAL SURVEY MODULAR FINITE-DIFFERENCE GROUNDWATER-FLOW MODEL
                            VERSION 1.0.9 07/01/2014
                    BASED ON MODFLOW-2005 VERSION 1.11.00 08/30/2013

 LIST FILE: 01_steady_state.list
                         UNIT    2

 OPENING 01_steady_state.dis
 FILE TYPE:DIS   UNIT   11   STATUS:OLD    
 FORMAT:FORMATTED              ACCESS:SEQUENTIAL          

 OPENING 01_steady_state.bas
 FILE TYPE:BAS6   UNIT   13   STATUS:OLD    
 FORMAT:FORMATTED              ACCESS:SEQUENTIAL          

 OPENING 01_steady_state.nwt
 FILE TYPE:NWT   UNIT   32   STATUS:OLD    
 FORMAT:FORMATTED              ACCESS:SEQUENTIAL          

 OPENING 01_steady_state.upw
 FILE TYPE:UPW   UNIT   31   STATUS:OLD    
 FORMAT:FORMATTED              ACCESS:SEQUENTIAL          

 OPENING 01_steady_state.oc
 FILE TYPE:OC   UNIT   14   STATUS:OLD    
 FORMAT:FORMATTED              ACCESS:SEQUENTIAL          

 OPENING 01_steady_state.hds
 FILE TYPE:DATA(BINARY)   UNIT   51   STATUS:REPLACE
 FORMAT:BINARY                 ACCESS:SEQUENTIAL          

 OPENING 01_steady_state.ddn
 FILE TYPE:DATA(BINARY)   UNIT   52   STATUS:REPLACE
 FORMAT:BINARY                 ACCESS:SEQUENTIAL          

 OPENING 01_steady_state.cbc
 FILE TYPE:DATA(BINARY)   UNIT   53   STATUS:REPLACE
 FORMAT:BINARY                 ACCESS:SEQUENTIAL          

 OPENING 01_steady_state.wel
 FILE TYPE:WEL   UNIT   20   STATUS:OLD    
 FORMAT:FORMATTED              ACCESS:SEQUENTIAL          

 OPENING 01_steady_state.ghb
 FILE TYPE:GHB   UNIT   23   STATUS:OLD    
 FORMAT:FORMATTED              ACCESS:SEQUENTIAL          

 OPENING 01_steady_state.rch
 FILE TYPE:RCH   UNIT   19   STATUS:OLD    
 FORMAT:FORMATTED              ACCESS:SEQUENTIAL          

 OPENING 01_steady_state.riv
 FILE TYPE:RIV   UNIT   18   STATUS:OLD    
 FORMAT:FORMATTED              ACCESS:SEQUENTIAL          

 OPENING 01_steady_state.lmt6
 FILE TYPE:LMT6   UNIT   30   STATUS:OLD    
 FORMAT:FORMATTED              ACCESS:SEQUENTIAL          

 BAS -- BASIC PACKAGE, VERSION 7, 5/2/2005 INPUT READ FROM UNIT   13
 
 MODFLOW was compiled using mixed precision
 Precision of REAL variables:           6
 Precision of DOUBLE PRECISION variables:          15

 DISCRETIZATION INPUT DATA READ FROM UNIT   11
 # Discretization file for MODFLOW, generated by Flopy.
    7 LAYERS       136 ROWS        76 COLUMNS
    1 STRESS PERIOD(S) IN SIMULATION
 MODEL TIME UNIT IS DAYS
 MODEL LENGTH UNIT IS METERS
  Confining bed flag for each layer:
   0   0   0   0   0   0   0

                     DELR =  1000.000    

                     DELC =  1000.000    



           TOP ELEVATION OF LAYER 1
 READING ON UNIT   11 WITH FORMAT: (76E15.6)           



             MODEL LAYER BOTTOM EL. FOR LAYER   1
 READING ON UNIT   11 WITH FORMAT: (76E15.6)           



             MODEL LAYER BOTTOM EL. FOR LAYER   2
 READING ON UNIT   11 WITH FORMAT: (76E15.6)           



             MODEL LAYER BOTTOM EL. FOR LAYER   3
 READING ON UNIT   11 WITH FORMAT: (76E15.6)           



             MODEL LAYER BOTTOM EL. FOR LAYER   4
 READING ON UNIT   11 WITH FORMAT: (76E15.6)           



             MODEL LAYER BOTTOM EL. FOR LAYER   5
 READING ON UNIT   11 WITH FORMAT: (76E15.6)           



             MODEL LAYER BOTTOM EL. FOR LAYER   6
 READING ON UNIT   11 WITH FORMAT: (76E15.6)           



             MODEL LAYER BOTTOM EL. FOR LAYER   7
 READING ON UNIT   11 WITH FORMAT: (76E15.6)           


 STRESS PERIOD     LENGTH       TIME STEPS     MULTIPLIER FOR DELT    SS FLAG
 ----------------------------------------------------------------------------
        1        1.0000000          1                    1.000         TR

 TRANSIENT SIMULATION



 
 # Basic package file for MODFLOW, generated by Flopy.                           
 THE FREE FORMAT OPTION HAS BEEN SELECTED



                     BOUNDARY ARRAY FOR LAYER   1
 READING ON UNIT   13 WITH FORMAT: (76I10)             



                     BOUNDARY ARRAY FOR LAYER   2
 READING ON UNIT   13 WITH FORMAT: (76I10)             



                     BOUNDARY ARRAY FOR LAYER   3
 READING ON UNIT   13 WITH FORMAT: (76I10)             



                     BOUNDARY ARRAY FOR LAYER   4
 READING ON UNIT   13 WITH FORMAT: (76I10)             



                     BOUNDARY ARRAY FOR LAYER   5
 READING ON UNIT   13 WITH FORMAT: (76I10)             



                     BOUNDARY ARRAY FOR LAYER   6
 READING ON UNIT   13 WITH FORMAT: (76I10)             



                     BOUNDARY ARRAY FOR LAYER   7
 READING ON UNIT   13 WITH FORMAT: (76I10)             

 AQUIFER HEAD WILL BE SET TO  -999.99     AT ALL NO-FLOW NODES (IBOUND=0).



                       INITIAL HEAD FOR LAYER   1
 READING ON UNIT   13 WITH FORMAT: (76E15.6)           



                       INITIAL HEAD FOR LAYER   2
 READING ON UNIT   13 WITH FORMAT: (76E15.6)           



                       INITIAL HEAD FOR LAYER   3
 READING ON UNIT   13 WITH FORMAT: (76E15.6)           



                       INITIAL HEAD FOR LAYER   4
 READING ON UNIT   13 WITH FORMAT: (76E15.6)           



                       INITIAL HEAD FOR LAYER   5
 READING ON UNIT   13 WITH FORMAT: (76E15.6)           



                       INITIAL HEAD FOR LAYER   6
 READING ON UNIT   13 WITH FORMAT: (76E15.6)           



                       INITIAL HEAD FOR LAYER   7
 READING ON UNIT   13 WITH FORMAT: (76E15.6)           
 # Output control package file for MODFLOW, generated by Flopy.

 OUTPUT CONTROL IS SPECIFIED ONLY AT TIME STEPS FOR WHICH OUTPUT IS DESIRED
 COMPACT CELL-BY-CELL BUDGET FILES WILL BE WRITTEN
 AUXILIARY DATA WILL BE SAVED IN CELL-BY-CELL BUDGET FILES
 HEAD PRINT FORMAT CODE IS   0    DRAWDOWN PRINT FORMAT CODE IS   0
 HEADS WILL BE SAVED ON UNIT   51    DRAWDOWNS WILL BE SAVED ON UNIT   52
 # NWT for MODFLOW-NWT, generated by Flopy.

 NWT1 -- Newton Solver, VERSION 1.0.9, 07/01/2014
         INPUT READ FROM UNIT 32

 COMPLEX OPTION:
 DEFAULT SOLVER INPUT VALUES REFLECT STRONGLY NONLINEAR MODEL
 ***XMD linear solver will be used***
 
   CONVERGENCE CRITERION OF   0.100000E-03 FOR HEAD SOLUTION
   AND A TOLERANCE OF   0.100000E+02 FOR FLOW SOLUTION AND 
   A MAXIMUM OF ***** OUTER ITERATIONS. 


   D-B-D REDUCTION FACTOR OF    0.850000E+00 AND 
   A D-B-D INCREASE FACTOR OF    0.100000E-04 AND 
   A D-B-D RELAXATION OF    0.000000E+00 AND 
   A MOMENTUM FACTOR OF    0.100000E+00 .


   BACKTRACKING IS ACTIVE 
   THE MAXIMUM NUMBER OF BACKTRACKS IS    50 AND 
   THE BACKTRACKING TOLERANCE IS    0.110000E+01 AND
   THE BACKTRACKING REDUCTION FACTOR IS    0.700000E+00

 XMD -- LINEAR SOLUTION BY XMD PACKAGE VERSION 1.30
     BY MOTOMU IBARAKI, OHIO STATE UNIVERSITY, COLOMBUS, OH
                 INPUT READ FROM UNIT 32
 ACCELERATION METHOD                    (IACL) =         2
 NODE ORDERING FLAG                   (NORDER) =         1
 LEVEL OF FILL                         (LEVEL) =         5
 MAXIMUM NUMBER OF ORTHOGONALIZATIONS  (NORTH) =         7
 INDEX FOR USING REDUCED SYSTEM      (IREDSYS) =         1
 RESID. REDUCTION CONVERGE CRITERION  (RRCTOL) =  0.000000E+00
 INDEX FOR USING DROP TOLERANCE     (IDROPTOL) =         1
 DROP TOLERANCE VALUE                  (EPSRN) =  0.100000E-04
 CONVERGENCE CRITERIA OF           (HCLOSEXMD) =  0.100000E-04
 MAX. NUMBER OF LINEAR ITERATIONS  (MXITERXMD) =        50


 UPW1 -- UPSTREAM WEIGHTING FLOW PACKAGE, VERSION 1.0.6, 12/05/2012
         INPUT READ FROM UNIT 31

 # UPW for MODFLOW-NWT, generated by Flopy.
 CELL-BY-CELL FLOWS WILL BE SAVED ON UNIT   53
 No named parameters

   LAYER FLAGS:
 LAYER       LAYTYP          LAYAVG    CHANI           LAYVKA           LAYWET
 ---------------------------------------------------------------------------
    1             1             0     1.000E+00             0             0
    2             1             0     1.000E+00             0             0
    3             1             0     1.000E+00             0             0
    4             1             0     1.000E+00             0             0
    5             1             0     1.000E+00             0             0
    6             1             0     1.000E+00             0             0
    7             1             0     1.000E+00             0             0

   INTERPRETATION OF LAYER FLAGS:
                        INTERBLOCK     HORIZONTAL    DATA IN
         LAYER TYPE   TRANSMISSIVITY   ANISOTROPY   ARRAY VKA   WETTABILITY
 LAYER   (LAYTYP)        (LAYAVG)      (CHANI)     (LAYVKA)       (LAYWET)
 ---------------------------------------------------------------------------
    1   CONVERTIBLE      HARMONIC     1.000E+00    VERTICAL K  NON-WETTABLE
    2   CONVERTIBLE      HARMONIC     1.000E+00    VERTICAL K  NON-WETTABLE
    3   CONVERTIBLE      HARMONIC     1.000E+00    VERTICAL K  NON-WETTABLE
    4   CONVERTIBLE      HARMONIC     1.000E+00    VERTICAL K  NON-WETTABLE
    5   CONVERTIBLE      HARMONIC     1.000E+00    VERTICAL K  NON-WETTABLE
    6   CONVERTIBLE      HARMONIC     1.000E+00    VERTICAL K  NON-WETTABLE
    7   CONVERTIBLE      HARMONIC     1.000E+00    VERTICAL K  NON-WETTABLE



              HYD. COND. ALONG ROWS FOR LAYER   1
 READING ON UNIT   31 WITH FORMAT: (76E15.6)           



                VERTICAL HYD. COND. FOR LAYER   1
 READING ON UNIT   31 WITH FORMAT: (76E15.6)           



                   SPECIFIC STORAGE FOR LAYER   1
 READING ON UNIT   31 WITH FORMAT: (76E15.6)           



                     SPECIFIC YIELD FOR LAYER   1
 READING ON UNIT   31 WITH FORMAT: (76E15.6)           



              HYD. COND. ALONG ROWS FOR LAYER   2
 READING ON UNIT   31 WITH FORMAT: (76E15.6)           



                VERTICAL HYD. COND. FOR LAYER   2
 READING ON UNIT   31 WITH FORMAT: (76E15.6)           



                   SPECIFIC STORAGE FOR LAYER   2
 READING ON UNIT   31 WITH FORMAT: (76E15.6)           



                     SPECIFIC YIELD FOR LAYER   2
 READING ON UNIT   31 WITH FORMAT: (76E15.6)           



              HYD. COND. ALONG ROWS FOR LAYER   3
 READING ON UNIT   31 WITH FORMAT: (76E15.6)           



                VERTICAL HYD. COND. FOR LAYER   3
 READING ON UNIT   31 WITH FORMAT: (76E15.6)           



                   SPECIFIC STORAGE FOR LAYER   3
 READING ON UNIT   31 WITH FORMAT: (76E15.6)           



                     SPECIFIC YIELD FOR LAYER   3
 READING ON UNIT   31 WITH FORMAT: (76E15.6)           



              HYD. COND. ALONG ROWS FOR LAYER   4
 READING ON UNIT   31 WITH FORMAT: (76E15.6)           



                VERTICAL HYD. COND. FOR LAYER   4
 READING ON UNIT   31 WITH FORMAT: (76E15.6)           



                   SPECIFIC STORAGE FOR LAYER   4
 READING ON UNIT   31 WITH FORMAT: (76E15.6)           



                     SPECIFIC YIELD FOR LAYER   4
 READING ON UNIT   31 WITH FORMAT: (76E15.6)           



              HYD. COND. ALONG ROWS FOR LAYER   5
 READING ON UNIT   31 WITH FORMAT: (76E15.6)           



                VERTICAL HYD. COND. FOR LAYER   5
 READING ON UNIT   31 WITH FORMAT: (76E15.6)           



                   SPECIFIC STORAGE FOR LAYER   5
 READING ON UNIT   31 WITH FORMAT: (76E15.6)           



                     SPECIFIC YIELD FOR LAYER   5
 READING ON UNIT   31 WITH FORMAT: (76E15.6)           



              HYD. COND. ALONG ROWS FOR LAYER   6
 READING ON UNIT   31 WITH FORMAT: (76E15.6)           



                VERTICAL HYD. COND. FOR LAYER   6
 READING ON UNIT   31 WITH FORMAT: (76E15.6)           



                   SPECIFIC STORAGE FOR LAYER   6
 READING ON UNIT   31 WITH FORMAT: (76E15.6)           



                     SPECIFIC YIELD FOR LAYER   6
 READING ON UNIT   31 WITH FORMAT: (76E15.6)           



              HYD. COND. ALONG ROWS FOR LAYER   7
 READING ON UNIT   31 WITH FORMAT: (76E15.6)           



                VERTICAL HYD. COND. FOR LAYER   7
 READING ON UNIT   31 WITH FORMAT: (76E15.6)           



                   SPECIFIC STORAGE FOR LAYER   7
 READING ON UNIT   31 WITH FORMAT: (76E15.6)           



                     SPECIFIC YIELD FOR LAYER   7
 READING ON UNIT   31 WITH FORMAT: (76E15.6)           

 WEL -- WELL PACKAGE, VERSION 1.0.6, 12/05/2012 INPUT READ FROM UNIT   20
 # Well file for MODFLOW, generated by Flopy.
 No named parameters
 MAXIMUM OF     27 ACTIVE WELLS AT ONE TIME
 CELL-BY-CELL FLOWS WILL BE SAVED ON UNIT   53
 No named parameters
  PHIRAMP WILL BE SET TO A DEFAULT VALUE OF 0.05
  WELLS WITH REDUCED PUMPING WILL BE REPORTED TO THE MAIN LISTING FILE


     0 Well parameters

 RIV -- RIVER PACKAGE, VERSION 7, 5/2/2005 INPUT READ FROM UNIT   18
 # RIV for MODFLOW, generated by Flopy.
 No named parameters
 MAXIMUM OF    206 ACTIVE RIVER REACHES AT ONE TIME
 CELL-BY-CELL FLOWS WILL BE SAVED ON UNIT   53


     0 River parameters

 GHB -- GENERAL-HEAD BOUNDARY PACKAGE, VERSION 7, 5/2/2005
         INPUT READ FROM UNIT   23
 # GHB for MODFLOW, generated by Flopy.
 No named parameters
 MAXIMUM OF    441 ACTIVE GHB CELLS AT ONE TIME
 CELL-BY-CELL FLOWS WILL BE SAVED ON UNIT   53


     0 GHB parameters

 RCH -- RECHARGE PACKAGE, VERSION 7, 5/2/2005 INPUT READ FROM UNIT   19
 # RCH for MODFLOW, generated by Flopy.
 No named parameters
 OPTION 3 -- RECHARGE TO HIGHEST ACTIVE NODE IN EACH VERTICAL COLUMN
 CELL-BY-CELL FLOWS WILL BE SAVED ON UNIT   53


     0 Recharge parameters


 ***Link-MT3DMS Package v7***
 OPENING LINK-MT3DMS OUTPUT FILE: mt3d_link.ftl                                                                                                                                                                                           
 ON UNIT NUMBER:    54
 FILE TYPE: UNFORMATTED
 HEADER OPTION: EXTENDED
 ***Link-MT3DMS Package v7***

1
                            STRESS PERIOD NO.    1, LENGTH =  1.0000000    
                            -----------------------------------------------

                              NUMBER OF TIME STEPS =     1

                               MULTIPLIER FOR DELT =     1.000

                            INITIAL TIME STEP SIZE =  1.0000000    

 WELL NO.  LAYER   ROW   COL   STRESS RATE         
 --------------------------------------------------
      1      5     39     20       0.000    
      2      4     39     20       0.000    
      3      2     39     20       0.000    
      4      2     97     23       0.000    
      5      6     25     25       0.000    
      6      4     25     25       0.000    
      7      2     25     25       0.000    
      8      2     25     25       0.000    
      9      4     49     32       0.000    
     10      6     99     33       0.000    
     11      4     99     33       0.000    
     12      6     85     38       0.000    
     13      1     85     38       0.000    
     14      6     56     41       0.000    
     15      4     56     48       0.000    
     16      4     50     49       0.000    
     17      2     50     49       0.000    
     18      6     55     57       0.000    
     19      1     55     57       0.000    
     20      3     81     59       0.000    
     21      7     85     62       0.000    
     22      3     66     66       0.000    
     23      1     66     66       0.000    
     24      3     80     66       0.000    
     25      1     80     66       0.000    
     26      7     74     69       0.000    
     27      1     74     69       0.000    

     27 WELLS

 REACH NO.  LAYER   ROW   COL     STAGE      CONDUCTANCE     BOTTOM EL.         
 -------------------------------------------------------------------------------
      1      1    116     30       151.6           160.3           151.5    
      2      1    110     31       178.0           324.0           177.9    
      3      1    111     31       158.6           218.5           158.5    
      4      1    113     31       161.2           262.3           161.1    
      5      1    114     31       173.1           514.4           173.0    
      6      1    115     31       147.2           577.6           147.1    
      7      1    116     31       160.0           782.2           159.9    
      8      1    117     31       185.4           103.9           185.3    
      9      1    118     31       161.3           153.3           161.2    
     10      1    101     32       138.4           675.0           138.3    
     11      1    102     32       145.9           250.1           145.8    
     12      1    104     32       151.0           152.3           150.9    
     13      1    105     32       150.4           599.0           150.3    
     14      1    106     32       148.4           603.7           148.3    
     15      1    107     32       160.5           575.3           160.4    
     16      1    108     32       160.0           575.4           159.9    
     17      1    109     32       166.9           555.1           166.8    
     18      1    110     32       168.5           223.6           168.4    
     19      1    111     32       166.6           387.7           166.5    
     20      1    112     32       164.1           565.3           164.0    
     21      1    113     32       181.0           484.3           180.9    
     22      1    116     32       190.7           104.5           190.6    
     23      1    117     32       178.3           477.2           178.2    
     24      1    118     32       168.0           622.8           167.9    
     25      1    119     32       200.0           141.8           199.9    
     26      1     99     33       153.1           97.78           153.0    
     27      1    100     33       142.9           697.6           142.8    
     28      1    101     33       148.1           146.2           148.0    
     29      1    102     33       154.4           314.3           154.3    
     30      1    103     33       154.7           527.4           154.6    
     31      1    104     33       157.8           672.0           157.7    
     32      1    119     33       171.8           502.2           171.7    
     33      1    120     33       170.3           546.2           170.2    
     34      1    121     33       167.0           730.6           166.9    
     35      1     97     34       149.3           158.8           149.2    
     36      1     98     34       135.2           539.0           135.1    
     37      1     99     34       149.5           605.9           149.4    
     38      1     95     35       146.1           147.9           146.0    
     39      1     96     35       136.4           649.4           136.3    
     40      1     97     35       136.7           604.8           136.6    
     41      1     95     36       133.1           702.3           133.0    
     42      1     96     36       142.9           118.5           142.8    
     43      1     89     37       132.3           213.9           132.2    
     44      1     90     37       133.6           244.4           133.5    
     45      1     92     37       136.0           415.7           135.9    
     46      1     93     37       134.8           326.7           134.7    
     47      1     94     37       130.6           864.6           130.5    
     48      1     95     37       134.2           48.27           134.1    
     49      1     89     38       131.0           556.4           130.9    
     50      1     90     38       133.6           457.2           133.5    
     51      1     91     38       130.6           576.7           130.5    
     52      1     92     38       135.2           541.7           135.1    
     53      1     93     38       133.8           302.5           133.7    
     54      1     94     38       140.4           88.02           140.3    
     55      1     82     39       130.0           73.27           129.9    
     56      1     83     39       127.3           344.9           127.2    
     57      1     84     39       130.3           238.7           130.2    
     58      1     85     39       131.0           335.9           130.9    
     59      1     86     39       127.5           517.9           127.4    
     60      1     88     39       127.0           671.0           126.9    
     61      1     89     39       129.6           875.2           129.5    
     62      1     80     40       126.5           151.4           126.4    
     63      1     81     40       127.8           733.4           127.7    
     64      1     82     40       124.1           888.7           124.0    
     65      1     83     40       125.1           806.9           125.0    
     66      1     84     40       127.5           595.6           127.4    
     67      1     85     40       127.8           630.1           127.7    
     68      1     86     40       126.4           631.6           126.3    
     69      1     87     40       130.2           715.2           130.1    
     70      1     88     40       130.1           191.1           130.0    
     71      1     89     40       139.2           103.4           139.1    
     72      1     80     41       128.4           522.5           128.3    
     73      1     81     41       127.0           199.2           126.9    
     74      1     82     41       129.1           202.1           129.0    
     75      1     85     41       135.2           163.8           135.1    
     76      1     86     41       131.9           278.4           131.8    
     77      1     80     42       124.6           691.3           124.5    
     78      1     79     43       121.4           607.9           121.3    
     79      1     80     43       123.7           536.5           123.6    
     80      1     73     44       121.6           637.0           121.5    
     81      1     74     44       120.7           432.4           120.6    
     82      1     75     44       118.0           728.0           117.9    
     83      1     76     44       123.6           786.8           123.5    
     84      1     77     44       121.5           377.4           121.4    
     85      1     78     44       122.8           773.9           122.7    
     86      1     79     44       124.8           123.3           124.7    
     87      1     72     45       120.5           642.7           120.4    
     88      1     73     45       120.2          0.3316           120.1    
     89      1     74     45       120.2           616.5           120.1    
     90      1     76     45       123.2           161.5           123.1    
     91      1     77     45       124.9           304.2           124.8    
     92      1     78     45       122.4           324.9           122.3    
     93      1     61     46       110.6           591.6           110.5    
     94      1     62     46       111.1           798.7           111.0    
     95      1     63     46       109.5           394.8           109.4    
     96      1     72     46       120.4           819.7           120.3    
     97      1     57     47       105.0           230.1           104.9    
     98      1     58     47       108.5           689.3           108.4    
     99      1     59     47       108.4           838.1           108.3    
    100      1     60     47       108.5           584.1           108.4    
    101      1     61     47       110.2           820.0           110.1    
    102      1     63     47       110.8           532.3           110.7    
    103      1     64     47       109.9           690.5           109.8    
    104      1     65     47       111.5           571.6           111.4    
    105      1     66     47       111.4           521.1           111.3    
    106      1     67     47       114.9           631.3           114.8    
    107      1     68     47       117.1           577.2           117.0    
    108      1     69     47       115.2           370.2           115.1    
    109      1     70     47       116.5           684.7           116.4    
    110      1     71     47       116.1           733.7           116.0    
    111      1     72     47       118.6           196.4           118.5    
    112      1     57     48       107.2           866.4           107.1    
    113      1     66     48       113.4           184.4           113.3    
    114      1     69     48       116.3           337.4           116.2    
    115      1     70     48       117.0           235.0           116.9    
    116      1     41     49       92.17           250.3           92.07    
    117      1     43     49       96.60           103.2           96.50    
    118      1     56     49       105.8           816.8           105.7    
    119      1     57     49       106.2           485.9           106.1    
    120      1     40     50       96.11           480.2           96.01    
    121      1     41     50       93.59           879.7           93.49    
    122      1     42     50       94.10           801.1           94.00    
    123      1     43     50       93.75           1137.           93.65    
    124      1     44     50       96.59           503.1           96.49    
    125      1     46     50       98.38           340.2           98.28    
    126      1     47     50       93.07           872.9           92.97    
    127      1     48     50       98.03           260.8           97.93    
    128      1     53     50       102.3           70.87           102.2    
    129      1     54     50       103.9           344.5           103.8    
    130      1     55     50       104.5           717.7           104.4    
    131      1     56     50       105.7           329.5           105.6    
    132      1     43     51       97.44           72.79           97.34    
    133      1     44     51       92.91           715.0           92.81    
    134      1     45     51       92.64           709.9           92.54    
    135      1     46     51       94.59           736.1           94.49    
    136      1     48     51       98.54           660.8           98.44    
    137      1     49     51       95.93           1051.           95.83    
    138      1     50     51       99.99           759.9           99.89    
    139      1     51     51       100.8           783.3           100.7    
    140      1     52     51       100.6           1020.           100.5    
    141      1     53     51       102.5           1080.           102.4    
    142      1     54     51       102.8           782.9           102.7    
    143      1     51     52       100.6           147.6           100.5    
    144      1      2     12       80.51           739.0           80.41    
    145      1      3     13       80.97           346.0           80.87    
    146      1      5     14       81.19           125.1           81.09    
    147      1      7     15       81.50           429.8           81.40    
    148      1      8     15       82.41           538.6           82.31    
    149      1      5     16       81.55           825.2           81.45    
    150      1      6     16       81.95           609.2           81.85    
    151      1      7     16       78.84           1340.           78.74    
    152      1      8     16       82.35           1397.           82.25    
    153      1     10     16       79.67           754.2           79.57    
    154      1     12     17       83.20           523.7           83.10    
    155      1     13     18       83.23           112.1           83.13    
    156      1     13     19       82.61           1060.           82.51    
    157      1     15     19       83.95           760.2           83.85    
    158      1     16     19       83.16           39.62           83.06    
    159      1     17     19       84.12           427.1           84.02    
    160      1     16     20       84.13           1211.           84.03    
    161      1     18     20       84.56           416.3           84.46    
    162      1     19     21       85.02           346.3           84.92    
    163      1     20     22       85.06           460.2           84.96    
    164      1     21     23       85.30           329.5           85.20    
    165      1     21     24       84.74           926.5           84.64    
    166      1     22     25       86.21           526.3           86.11    
    167      1     23     26       86.52           553.0           86.42    
    168      1     24     27       86.68           714.9           86.58    
    169      1     24     29       83.72           1322.           83.62    
    170      1     25     29       85.34           649.1           85.24    
    171      1     26     29       87.12           664.3           87.02    
    172      1     27     29       90.33           338.2           90.23    
    173      1     28     31       88.02           128.8           87.92    
    174      1     28     32       89.05           764.4           88.95    
    175      1     29     33       83.13           579.3           83.03    
    176      1     30     34       88.44           346.1           88.34    
    177      1     30     35       88.24           634.8           88.14    
    178      1     31     35       89.54           179.4           89.44    
    179      1     32     35       90.02           21.87           89.92    
    180      1     32     36       90.22           794.8           90.12    
    181      1     32     37       89.41           752.5           89.31    
    182      1     32     38       90.72           964.8           90.62    
    183      1     33     38       91.15           420.2           91.05    
    184      1     34     38       91.11           526.0           91.01    
    185      1     35     38       92.98           804.5           92.88    
    186      1     36     38       93.52           10.58           93.42    
    187      1     34     39       88.92           1139.           88.82    
    188      1     36     39       95.24           503.6           95.14    
    189      1     33     40       90.52           641.2           90.42    
    190      1     34     40       90.77           270.2           90.67    
    191      1     35     40       93.89           118.7           93.79    
    192      1     34     41       94.20           82.32           94.10    
    193      1     36     42       95.13           170.4           95.03    
    194      1     36     43       94.22           368.1           94.12    
    195      1     35     44       91.49           606.3           91.39    
    196      1     34     45       90.18           693.7           90.08    
    197      1     35     45       92.00           745.2           91.90    
    198      1     38     45       95.84           455.0           95.74    
    199      1     37     46       89.99           976.2           89.89    
    200      1     38     46       93.47           64.65           93.37    
    201      1     38     48       92.49           687.8           92.39    
    202      1     40     48       91.66           460.5           91.56    
    203      1     40     50       96.11           414.0           96.01    
    204      1     41     51       95.26           312.1           95.16    
    205      1     41     55       95.00           50.03           94.90    
    206      1     41     56       95.11           320.4           95.01    

    206 RIVER REACHES

 BOUND. NO. LAYER   ROW   COL     STAGE      CONDUCTANCE         
 ----------------------------------------------------------------
      1      1      2     12       80.53           121.6    
      2      2      2     12       80.53           121.6    
      3      3      2     12       80.53           121.6    
      4      4      2     12       80.53           101.0    
      5      5      2     12       80.53           25.26    
      6      6      2     12       80.53           785.2    
      7      7      2     12       80.53           50.00    
      8      1      3     13       80.99           16.25    
      9      2      3     13       80.99           227.2    
     10      3      3     13       80.99           113.6    
     11      4      3     13       80.99           117.3    
     12      5      3     13       80.99           29.32    
     13      6      3     13       80.99           798.8    
     14      7      3     13       80.99           50.00    
     15      1      5     14       81.21           15.00    
     16      2      5     14       81.21           218.8    
     17      3      5     14       81.21           109.4    
     18      4      5     14       81.21           145.3    
     19      5      5     14       81.21           36.31    
     20      6      5     14       81.21           761.8    
     21      7      5     14       81.21           50.00    
     22      1      7     15       81.52           25.90    
     23      2      7     15       81.52           216.2    
     24      3      7     15       81.52           108.1    
     25      4      7     15       81.52           163.9    
     26      5      7     15       81.52           40.97    
     27      6      7     15       81.52           705.5    
     28      7      7     15       81.52           50.00    
     29      1      8     15       82.43           37.18    
     30      2      8     15       82.43           216.1    
     31      3      8     15       82.43           108.1    
     32      4      8     15       82.43           161.9    
     33      5      8     15       82.43           40.49    
     34      6      8     15       82.43           683.6    
     35      7      8     15       82.43           499.1    
     36      1      5     16       81.57           117.7    
     37      2      5     16       81.57           117.7    
     38      3      5     16       81.57           117.7    
     39      4      5     16       81.57           153.7    
     40      5      5     16       81.57           38.42    
     41      6      5     16       81.57           782.0    
     42      7      5     16       81.57           50.00    
     43      1      6     16       81.97           119.0    
     44      2      6     16       81.97           119.0    
     45      3      6     16       81.97           119.0    
     46      4      6     16       81.97           159.3    
     47      5      6     16       81.97           39.83    
     48      6      6     16       81.97           746.7    
     49      7      6     16       81.97           50.00    
     50      1      7     16       78.86           114.9    
     51      2      7     16       78.86           114.9    
     52      3      7     16       78.86           114.9    
     53      4      7     16       78.86           159.9    
     54      5      7     16       78.86           39.97    
     55      6      7     16       78.86           713.3    
     56      7      7     16       78.86           50.00    
     57      1      8     16       82.37           122.9    
     58      2      8     16       82.37           122.9    
     59      3      8     16       82.37           122.9    
     60      4      8     16       82.37           158.4    
     61      5      8     16       82.37           39.61    
     62      6      8     16       82.37           686.7    
     63      7      8     16       82.37           50.00    
     64      1     10     16       79.69           123.8    
     65      2     10     16       79.69           123.8    
     66      3     10     16       79.69           123.8    
     67      4     10     16       79.69           159.2    
     68      5     10     16       79.69           39.80    
     69      6     10     16       79.69           618.6    
     70      7     10     16       79.69           478.1    
     71      1     12     17       83.22           39.27    
     72      2     12     17       83.22           247.3    
     73      3     12     17       83.22           123.7    
     74      4     12     17       83.22           158.4    
     75      5     12     17       83.22           39.61    
     76      6     12     17       83.22           537.4    
     77      7     12     17       83.22           462.4    
     78      1     13     18       83.25           37.75    
     79      2     13     18       83.25           257.5    
     80      3     13     18       83.25           128.7    
     81      4     13     18       83.25           151.9    
     82      5     13     18       83.25           37.98    
     83      6     13     18       83.25           487.2    
     84      7     13     18       83.25           446.4    
     85      1     13     19       82.63           38.08    
     86      2     13     19       82.63           263.1    
     87      3     13     19       82.63           131.6    
     88      4     13     19       82.63           144.4    
     89      5     13     19       82.63           36.09    
     90      6     13     19       82.63           493.0    
     91      7     13     19       82.63           448.3    
     92      1     15     19       83.97           44.24    
     93      2     15     19       83.97           281.7    
     94      3     15     19       83.97           140.8    
     95      4     15     19       83.97           120.9    
     96      5     15     19       83.97           30.21    
     97      6     15     19       83.97           409.4    
     98      7     15     19       83.97           419.8    
     99      1     16     19       83.18           38.65    
    100      2     16     19       83.18           289.9    
    101      3     16     19       83.18           145.0    
    102      4     16     19       83.18           109.8    
    103      5     16     19       83.18           27.46    
    104      6     16     19       83.18           377.2    
    105      7     16     19       83.18           405.7    
    106      1     17     19       84.14           43.74    
    107      2     17     19       84.14           299.0    
    108      3     17     19       84.14           149.5    
    109      4     17     19       84.14           96.73    
    110      5     17     19       84.14           24.18    
    111      6     17     19       84.14           346.7    
    112      7     17     19       84.14           395.5    
    113      1     16     20       84.15           163.5    
    114      2     16     20       84.15           163.5    
    115      3     16     20       84.15           163.5    
    116      4     16     20       84.15           105.9    
    117      5     16     20       84.15           26.46    
    118      6     16     20       84.15           391.7    
    119      7     16     20       84.15           415.2    
    120      1     18     20       84.58           172.2    
    121      2     18     20       84.58           172.2    
    122      3     18     20       84.58           172.2    
    123      4     18     20       84.58           87.87    
    124      5     18     20       84.58           21.97    
    125      6     18     20       84.58           335.7    
    126      7     18     20       84.58           396.4    
    127      1     19     21       85.04           48.64    
    128      2     19     21       85.04           322.4    
    129      3     19     21       85.04           161.2    
    130      4     19     21       85.04           98.97    
    131      5     19     21       85.04           24.74    
    132      6     19     21       85.04           324.6    
    133      7     19     21       85.04           403.0    
    134      1     20     22       85.08           48.97    
    135      2     20     22       85.08           329.7    
    136      3     20     22       85.08           164.8    
    137      4     20     22       85.08           106.9    
    138      5     20     22       85.08           26.72    
    139      6     20     22       85.08           325.9    
    140      7     20     22       85.08           411.1    
    141      1     21     23       85.32           49.64    
    142      2     21     23       85.32           335.8    
    143      3     21     23       85.32           167.9    
    144      4     21     23       85.32           116.1    
    145      5     21     23       85.32           29.02    
    146      6     21     23       85.32           320.5    
    147      7     21     23       85.32           416.8    
    148      1     21     24       84.76           184.2    
    149      2     21     24       84.76           184.2    
    150      3     21     24       84.76           184.2    
    151      4     21     24       84.76           124.4    
    152      5     21     24       84.76           31.09    
    153      6     21     24       84.76           327.0    
    154      7     21     24       84.76           422.7    
    155      1     22     25       86.23           187.3    
    156      2     22     25       86.23           187.3    
    157      3     22     25       86.23           187.3    
    158      4     22     25       86.23           134.8    
    159      5     22     25       86.23           33.71    
    160      6     22     25       86.23           308.5    
    161      7     22     25       86.23           424.0    
    162      1     23     26       86.54           184.6    
    163      2     23     26       86.54           184.6    
    164      3     23     26       86.54           184.6    
    165      4     23     26       86.54           145.1    
    166      5     23     26       86.54           36.29    
    167      6     23     26       86.54           279.0    
    168      7     23     26       86.54           415.1    
    169      1     24     27       86.70           177.0    
    170      2     24     27       86.70           177.0    
    171      3     24     27       86.70           177.0    
    172      4     24     27       86.70           160.7    
    173      5     24     27       86.70           40.17    
    174      6     24     27       86.70           212.5    
    175      7     24     27       86.70           390.0    
    176      1     24     29       83.74           165.6    
    177      2     24     29       83.74           165.6    
    178      3     24     29       83.74           165.6    
    179      4     24     29       83.74           173.2    
    180      5     24     29       83.74           43.29    
    181      6     24     29       83.74           171.6    
    182      7     24     29       83.74           368.5    
    183      1     25     29       85.36           27.26    
    184      2     25     29       85.36           306.0    
    185      3     25     29       85.36           153.0    
    186      4     25     29       85.36           179.8    
    187      5     25     29       85.36           44.96    
    188      6     25     29       85.36           94.62    
    189      7     25     29       85.36           340.0    
    190      1     26     29       87.14           35.50    
    191      2     26     29       87.14           302.3    
    192      3     26     29       87.14           151.1    
    193      4     26     29       87.14           176.8    
    194      5     26     29       87.14           44.19    
    195      6     26     29       87.14           15.02    
    196      7     26     29       87.14           311.0    
    197      1     27     29       90.35           43.22    
    198      2     27     29       90.35           306.3    
    199      3     27     29       90.35           153.1    
    200      4     27     29       90.35           135.0    
    201      5     27     29       90.35           33.76    
    202      6     27     29       90.35           250.0    
    203      7     27     29       90.35           41.67    
    204      1     28     31       88.04           31.56    
    205      2     28     31       88.04           305.7    
    206      3     28     31       88.04           152.9    
    207      4     28     31       88.04           27.51    
    208      5     28     31       88.04           6.878    
    209      6     28     31       88.04           204.7    
    210      7     28     31       88.04           34.12    
    211      1     28     32       89.07           43.93    
    212      2     28     32       89.07           306.0    
    213      3     28     32       89.07           153.0    
    214      4     28     32       89.07           11.10    
    215      5     28     32       89.07           2.775    
    216      6     28     32       89.07           202.3    
    217      7     28     32       89.07           33.72    
    218      1     29     33       83.15           136.4    
    219      2     29     33       83.15           136.4    
    220      3     29     33       83.15           136.4    
    221      4     29     33       83.15           112.8    
    222      5     29     33       83.15           28.20    
    223      6     29     33       83.15           28.20    
    224      7     29     33       83.15           28.20    
    225      1     30     34       88.46           42.64    
    226      2     30     34       88.46           249.2    
    227      3     30     34       88.46           124.6    
    228      4     30     34       88.46           114.2    
    229      5     30     34       88.46           28.56    
    230      6     30     34       88.46           28.56    
    231      7     30     34       88.46           28.56    
    232      1     30     35       88.26           159.9    
    233      2     30     35       88.26           159.9    
    234      3     30     35       88.26           159.9    
    235      4     30     35       88.26           45.78    
    236      5     30     35       88.26           11.44    
    237      6     30     35       88.26           208.5    
    238      7     30     35       88.26           34.75    
    239      1     31     35       89.56           46.88    
    240      2     31     35       89.56           277.0    
    241      3     31     35       89.56           138.5    
    242      4     31     35       89.56           64.69    
    243      5     31     35       89.56           16.17    
    244      6     31     35       89.56           210.5    
    245      7     31     35       89.56           35.08    
    246      1     32     35       90.04           30.40    
    247      2     32     35       90.04           277.5    
    248      3     32     35       90.04           138.8    
    249      4     32     35       90.04           162.7    
    250      5     32     35       90.04           40.68    
    251      6     32     35       90.04           243.5    
    252      7     32     35       90.04           40.58    
    253      1     32     36       90.24           49.49    
    254      2     32     36       90.24           257.2    
    255      3     32     36       90.24           128.6    
    256      4     32     36       90.24           252.3    
    257      5     32     36       90.24           63.07    
    258      6     32     36       90.24           274.5    
    259      7     32     36       90.24           45.74    
    260      1     32     37       89.43           39.51    
    261      2     32     37       89.43           263.5    
    262      3     32     37       89.43           131.8    
    263      4     32     37       89.43           289.8    
    264      5     32     37       89.43           72.46    
    265      6     32     37       89.43           288.8    
    266      7     32     37       89.43           48.14    
    267      1     32     38       90.74           52.91    
    268      2     32     38       90.74           263.4    
    269      3     32     38       90.74           131.7    
    270      4     32     38       90.74           308.1    
    271      5     32     38       90.74           77.02    
    272      6     32     38       90.74           300.8    
    273      7     32     38       90.74           50.02    
    274      1     33     38       91.17           24.48    
    275      2     33     38       91.17           264.0    
    276      3     33     38       91.17           132.0    
    277      4     33     38       91.17           313.7    
    278      5     33     38       91.17           78.42    
    279      6     33     38       91.17           36.32    
    280      7     33     38       91.17           355.6    
    281      1     34     38       91.13           130.6    
    282      2     34     38       91.13           130.6    
    283      3     34     38       91.13           130.6    
    284      4     34     38       91.13           277.3    
    285      5     34     38       91.13           69.33    
    286      6     34     38       91.13           111.2    
    287      7     34     38       91.13           355.8    
    288      1     35     38       93.00           123.5    
    289      2     35     38       93.00           123.5    
    290      3     35     38       93.00           123.5    
    291      4     35     38       93.00           235.5    
    292      5     35     38       93.00           58.87    
    293      6     35     38       93.00           173.8    
    294      7     35     38       93.00           352.0    
    295      1     36     38       93.54           120.1    
    296      2     36     38       93.54           120.1    
    297      3     36     38       93.54           120.1    
    298      4     36     38       93.54           189.9    
    299      5     36     38       93.54           47.48    
    300      6     36     38       93.54           218.5    
    301      7     36     38       93.54           343.8    
    302      1     34     39       88.94           129.1    
    303      2     34     39       88.94           129.1    
    304      3     34     39       88.94           129.1    
    305      4     34     39       88.94           249.5    
    306      5     34     39       88.94           62.37    
    307      6     34     39       88.94           139.6    
    308      7     34     39       88.94           352.0    
    309      1     36     39       95.26           118.7    
    310      2     36     39       95.26           118.7    
    311      3     36     39       95.26           118.7    
    312      4     36     39       95.26           158.7    
    313      5     36     39       95.26           39.68    
    314      6     36     39       95.26           254.9    
    315      7     36     39       95.26           341.4    
    316      1     33     40       90.54           58.84    
    317      2     33     40       90.54           258.8    
    318      3     33     40       90.54           129.4    
    319      4     33     40       90.54           254.3    
    320      5     33     40       90.54           63.58    
    321      6     33     40       90.54           107.0    
    322      7     33     40       90.54           363.9    
    323      1     34     40       90.79           44.14    
    324      2     34     40       90.79           242.1    
    325      3     34     40       90.79           121.1    
    326      4     34     40       90.79           224.6    
    327      5     34     40       90.79           56.15    
    328      6     34     40       90.79           166.5    
    329      7     34     40       90.79           357.6    
    330      1     35     40       93.91           126.9    
    331      2     35     40       93.91           126.9    
    332      3     35     40       93.91           126.9    
    333      4     35     40       93.91           191.1    
    334      5     35     40       93.91           47.78    
    335      6     35     40       93.91           218.9    
    336      7     35     40       93.91           351.8    
    337      1     34     41       94.22           154.4    
    338      2     34     41       94.22           154.4    
    339      3     34     41       94.22           154.4    
    340      4     34     41       94.22           203.3    
    341      5     34     41       94.22           50.83    
    342      6     34     41       94.22           167.9    
    343      7     34     41       94.22           368.7    
    344      1     36     42       95.15           164.1    
    345      2     36     42       95.15           164.1    
    346      3     36     42       95.15           164.1    
    347      4     36     42       95.15           149.4    
    348      5     36     42       95.15           37.34    
    349      6     36     42       95.15           196.6    
    350      7     36     42       95.15           365.3    
    351      1     36     43       94.24           175.2    
    352      2     36     43       94.24           175.2    
    353      3     36     43       94.24           175.2    
    354      4     36     43       94.24           148.5    
    355      5     36     43       94.24           37.12    
    356      6     36     43       94.24           179.1    
    357      7     36     43       94.24           371.4    
    358      1     35     44       91.51           167.1    
    359      2     35     44       91.51           167.1    
    360      3     35     44       91.51           167.1    
    361      4     35     44       91.51           124.2    
    362      5     35     44       91.51           31.04    
    363      6     35     44       91.51           248.8    
    364      7     35     44       91.51           375.9    
    365      1     34     45       90.20           164.4    
    366      2     34     45       90.20           164.4    
    367      3     34     45       90.20           164.4    
    368      4     34     45       90.20           107.0    
    369      5     34     45       90.20           26.74    
    370      6     34     45       90.20           306.5    
    371      7     34     45       90.20           386.1    
    372      1     35     45       92.02           34.96    
    373      2     35     45       92.02           298.6    
    374      3     35     45       92.02           149.3    
    375      4     35     45       92.02           78.32    
    376      5     35     45       92.02           19.58    
    377      6     35     45       92.02           337.8    
    378      7     35     45       92.02           380.7    
    379      1     38     45       95.86           162.5    
    380      2     38     45       95.86           162.5    
    381      3     38     45       95.86           162.5    
    382      4     38     45       95.86           74.67    
    383      5     38     45       95.86           18.67    
    384      6     38     45       95.86           383.8    
    385      7     38     45       95.86           397.2    
    386      1     37     46       90.01           146.9    
    387      2     37     46       90.01           146.9    
    388      3     37     46       90.01           146.9    
    389      4     37     46       90.01           66.87    
    390      5     37     46       90.01           16.72    
    391      6     37     46       90.01           427.3    
    392      7     37     46       90.01           392.6    
    393      1     38     46       93.49           30.00    
    394      2     38     46       93.49           280.0    
    395      3     38     46       93.49           140.0    
    396      4     38     46       93.49           80.06    
    397      5     38     46       93.49           20.02    
    398      6     38     46       93.49           423.7    
    399      7     38     46       93.49           408.8    
    400      1     38     48       92.51           35.42    
    401      2     38     48       92.51           260.3    
    402      3     38     48       92.51           130.1    
    403      4     38     48       92.51           100.7    
    404      5     38     48       92.51           25.17    
    405      6     38     48       92.51           461.4    
    406      7     38     48       92.51           449.5    
    407      1     40     48       91.68           132.2    
    408      2     40     48       91.68           132.2    
    409      3     40     48       91.68           132.2    
    410      4     40     48       91.68           117.4    
    411      5     40     48       91.68           29.34    
    412      6     40     48       91.68           418.1    
    413      7     40     48       91.68           484.0    
    414      1     40     50       96.13           142.5    
    415      2     40     50       96.13           142.5    
    416      3     40     50       96.13           142.5    
    417      4     40     50       96.13           132.1    
    418      5     40     50       96.13           33.04    
    419      6     40     50       96.13           329.2    
    420      7     40     50       96.13           646.4    
    421      1     41     51       95.28           141.9    
    422      2     41     51       95.28           141.9    
    423      3     41     51       95.28           141.9    
    424      4     41     51       95.28           129.8    
    425      5     41     51       95.28           32.44    
    426      6     41     51       95.28           280.5    
    427      7     41     51       95.28           737.0    
    428      1     41     55       95.02           47.51    
    429      2     41     55       95.02           286.0    
    430      3     41     55       95.02           143.0    
    431      4     41     55       95.02           81.35    
    432      5     41     55       95.02           20.34    
    433      6     41     55       95.02           370.2    
    434      7     41     55       95.02           354.3    
    435      1     41     56       95.13           46.53    
    436      2     41     56       95.13           293.5    
    437      3     41     56       95.13           146.8    
    438      4     41     56       95.13           73.13    
    439      5     41     56       95.13           18.28    
    440      6     41     56       95.13           397.4    
    441      7     41     56       95.13           337.8    

    441 GHB CELLS



                           RECHARGE
 READING ON UNIT   19 WITH FORMAT: (76E15.6)           
 
 SOLVING FOR HEAD 

    ------------------------------------------------
       NWT REQUIRED           25 OUTER ITERATIONS 
       AND A TOTAL OF         50 INNER ITERATIONS.
    ------------------------------------------------

 OUTPUT CONTROL FOR STRESS PERIOD    1   TIME STEP    1
    SAVE HEAD FOR ALL LAYERS
    PRINT BUDGET
    SAVE BUDGET
 UBDSV1 SAVING "         STORAGE" ON UNIT  53 AT TIME STEP  1, STRESS PERIOD   1
 UBDSV2 SAVING "   CONSTANT HEAD" ON UNIT  53 AT TIME STEP  1, STRESS PERIOD   1
 UBDSV1 SAVING "FLOW RIGHT FACE " ON UNIT  53 AT TIME STEP  1, STRESS PERIOD   1
 UBDSV1 SAVING "FLOW FRONT FACE " ON UNIT  53 AT TIME STEP  1, STRESS PERIOD   1
 UBDSV1 SAVING "FLOW LOWER FACE " ON UNIT  53 AT TIME STEP  1, STRESS PERIOD   1
 UBDSV4 SAVING "           WELLS" ON UNIT  53 AT TIME STEP  1, STRESS PERIOD   1
 UBDSV4 SAVING "   RIVER LEAKAGE" ON UNIT  53 AT TIME STEP  1, STRESS PERIOD   1
 UBDSV4 SAVING " HEAD DEP BOUNDS" ON UNIT  53 AT TIME STEP  1, STRESS PERIOD   1
 UBDSV3 SAVING "        RECHARGE" ON UNIT  53 AT TIME STEP  1, STRESS PERIOD   1

 SAVING SATURATED THICKNESS AND FLOW TERMS ON UNIT   54 FOR MT3DMS
 BY THE LINK-MT3DMS PACKAGE V7 AT TIME STEP    1, STRESS PERIOD    1


 HEAD WILL BE SAVED ON UNIT   51 AT END OF TIME STEP    1, STRESS PERIOD    1
1
  VOLUMETRIC BUDGET FOR ENTIRE MODEL AT END OF TIME STEP    1, STRESS PERIOD   1
  ------------------------------------------------------------------------------

     CUMULATIVE VOLUMES      L**3       RATES FOR THIS TIME STEP      L**3/T
     ------------------                 ------------------------

           IN:                                      IN:
           ---                                      ---
             STORAGE =          46.5967               STORAGE =          46.5967
       CONSTANT HEAD =           0.0000         CONSTANT HEAD =           0.0000
               WELLS =           0.0000                 WELLS =           0.0000
       RIVER LEAKAGE =        6032.8262         RIVER LEAKAGE =        6032.8262
     HEAD DEP BOUNDS =       11825.7090       HEAD DEP BOUNDS =       11825.7090
            RECHARGE =       65813.5312              RECHARGE =       65813.5312

            TOTAL IN =       83718.6641              TOTAL IN =       83718.6641

          OUT:                                     OUT:
          ----                                     ----
             STORAGE =          60.3438               STORAGE =          60.3438
       CONSTANT HEAD =           0.0000         CONSTANT HEAD =           0.0000
               WELLS =           0.0000                 WELLS =           0.0000
       RIVER LEAKAGE =       39259.8594         RIVER LEAKAGE =       39259.8594
     HEAD DEP BOUNDS =       44398.9570       HEAD DEP BOUNDS =       44398.9570
            RECHARGE =           0.0000              RECHARGE =           0.0000

           TOTAL OUT =       83719.1562             TOTAL OUT =       83719.1562

            IN - OUT =          -0.4922              IN - OUT =          -0.4922

 PERCENT DISCREPANCY =          -0.00     PERCENT DISCREPANCY =          -0.00






         TIME SUMMARY AT END OF TIME STEP    1 IN STRESS PERIOD    1
                    SECONDS     MINUTES      HOURS       DAYS        YEARS
                    -----------------------------------------------------------
   TIME STEP LENGTH  86400.      1440.0      24.000     1.00000     2.73785E-03
 STRESS PERIOD TIME  86400.      1440.0      24.000     1.00000     2.73785E-03
         TOTAL TIME  86400.      1440.0      24.000     1.00000     2.73785E-03
1

 Run end date and time (yyyy/mm/dd hh:mm:ss): 2016/12/09 11:28:01
 Elapsed run time:  1.820 Seconds

