                                  MODFLOW-NWT-SWR1 
      U.S. GEOLOGICAL SURVEY MODULAR FINITE-DIFFERENCE GROUNDWATER-FLOW MODEL
                            VERSION 1.0.9 07/01/2014
                    BASED ON MODFLOW-2005 VERSION 1.11.00 08/30/2013

 LIST FILE: GW_link_Integrated.list
                         UNIT    2

 OPENING GW_link_Integrated.dis
 FILE TYPE:DIS   UNIT   11   STATUS:OLD    
 FORMAT:FORMATTED              ACCESS:SEQUENTIAL          

 OPENING GW_link_Integrated.bas
 FILE TYPE:BAS6   UNIT   13   STATUS:OLD    
 FORMAT:FORMATTED              ACCESS:SEQUENTIAL          

 OPENING GW_link_Integrated.nwt
 FILE TYPE:NWT   UNIT   32   STATUS:OLD    
 FORMAT:FORMATTED              ACCESS:SEQUENTIAL          

 OPENING GW_link_Integrated.upw
 FILE TYPE:UPW   UNIT   31   STATUS:OLD    
 FORMAT:FORMATTED              ACCESS:SEQUENTIAL          

 OPENING GW_link_Integrated.oc
 FILE TYPE:OC   UNIT   14   STATUS:OLD    
 FORMAT:FORMATTED              ACCESS:SEQUENTIAL          

 OPENING GW_link_Integrated.hds
 FILE TYPE:DATA(BINARY)   UNIT   51   STATUS:REPLACE
 FORMAT:BINARY                 ACCESS:SEQUENTIAL          

 OPENING GW_link_Integrated.ddn
 FILE TYPE:DATA(BINARY)   UNIT   52   STATUS:REPLACE
 FORMAT:BINARY                 ACCESS:SEQUENTIAL          

 OPENING GW_link_Integrated.cbc
 FILE TYPE:DATA(BINARY)   UNIT   53   STATUS:REPLACE
 FORMAT:BINARY                 ACCESS:SEQUENTIAL          

 OPENING GW_link_Integrated.ghb
 FILE TYPE:GHB   UNIT   23   STATUS:OLD    
 FORMAT:FORMATTED              ACCESS:SEQUENTIAL          

 OPENING GW_link_Integrated.rch
 FILE TYPE:RCH   UNIT   19   STATUS:OLD    
 FORMAT:FORMATTED              ACCESS:SEQUENTIAL          

 OPENING GW_link_Integrated.riv
 FILE TYPE:RIV   UNIT   18   STATUS:OLD    
 FORMAT:FORMATTED              ACCESS:SEQUENTIAL          

 OPENING GW_link_Integrated.wel
 FILE TYPE:WEL   UNIT   20   STATUS:OLD    
 FORMAT:FORMATTED              ACCESS:SEQUENTIAL          

 OPENING GW_link_Integrated.lmt6
 FILE TYPE:LMT6   UNIT   30   STATUS:OLD    
 FORMAT:FORMATTED              ACCESS:SEQUENTIAL          

 BAS -- BASIC PACKAGE, VERSION 7, 5/2/2005 INPUT READ FROM UNIT   13
 
 MODFLOW was compiled using mixed precision
 Precision of REAL variables:           6
 Precision of DOUBLE PRECISION variables:          15

 DISCRETIZATION INPUT DATA READ FROM UNIT   11
 # Discretization file for MODFLOW, generated by Flopy.
    7 LAYERS       136 ROWS        76 COLUMNS
    1 STRESS PERIOD(S) IN SIMULATION
 MODEL TIME UNIT IS DAYS
 MODEL LENGTH UNIT IS METERS
  Confining bed flag for each layer:
   0   0   0   0   0   0   0

                     DELR =  1000.000    

                     DELC =  1000.000    



           TOP ELEVATION OF LAYER 1
 READING ON UNIT   11 WITH FORMAT: (76E15.6)           



             MODEL LAYER BOTTOM EL. FOR LAYER   1
 READING ON UNIT   11 WITH FORMAT: (76E15.6)           



             MODEL LAYER BOTTOM EL. FOR LAYER   2
 READING ON UNIT   11 WITH FORMAT: (76E15.6)           



             MODEL LAYER BOTTOM EL. FOR LAYER   3
 READING ON UNIT   11 WITH FORMAT: (76E15.6)           



             MODEL LAYER BOTTOM EL. FOR LAYER   4
 READING ON UNIT   11 WITH FORMAT: (76E15.6)           



             MODEL LAYER BOTTOM EL. FOR LAYER   5
 READING ON UNIT   11 WITH FORMAT: (76E15.6)           



             MODEL LAYER BOTTOM EL. FOR LAYER   6
 READING ON UNIT   11 WITH FORMAT: (76E15.6)           



             MODEL LAYER BOTTOM EL. FOR LAYER   7
 READING ON UNIT   11 WITH FORMAT: (76E15.6)           


 STRESS PERIOD     LENGTH       TIME STEPS     MULTIPLIER FOR DELT    SS FLAG
 ----------------------------------------------------------------------------
        1        1.0000000          1                    1.000         TR

 TRANSIENT SIMULATION



 
 # Basic package file for MODFLOW, generated by Flopy.                           
 THE FREE FORMAT OPTION HAS BEEN SELECTED



                     BOUNDARY ARRAY FOR LAYER   1
 READING ON UNIT   13 WITH FORMAT: (76I10)             



                     BOUNDARY ARRAY FOR LAYER   2
 READING ON UNIT   13 WITH FORMAT: (76I10)             



                     BOUNDARY ARRAY FOR LAYER   3
 READING ON UNIT   13 WITH FORMAT: (76I10)             



                     BOUNDARY ARRAY FOR LAYER   4
 READING ON UNIT   13 WITH FORMAT: (76I10)             



                     BOUNDARY ARRAY FOR LAYER   5
 READING ON UNIT   13 WITH FORMAT: (76I10)             



                     BOUNDARY ARRAY FOR LAYER   6
 READING ON UNIT   13 WITH FORMAT: (76I10)             



                     BOUNDARY ARRAY FOR LAYER   7
 READING ON UNIT   13 WITH FORMAT: (76I10)             

 AQUIFER HEAD WILL BE SET TO  -999.99     AT ALL NO-FLOW NODES (IBOUND=0).



                       INITIAL HEAD FOR LAYER   1
 READING ON UNIT   13 WITH FORMAT: (76E15.6)           



                       INITIAL HEAD FOR LAYER   2
 READING ON UNIT   13 WITH FORMAT: (76E15.6)           



                       INITIAL HEAD FOR LAYER   3
 READING ON UNIT   13 WITH FORMAT: (76E15.6)           



                       INITIAL HEAD FOR LAYER   4
 READING ON UNIT   13 WITH FORMAT: (76E15.6)           



                       INITIAL HEAD FOR LAYER   5
 READING ON UNIT   13 WITH FORMAT: (76E15.6)           



                       INITIAL HEAD FOR LAYER   6
 READING ON UNIT   13 WITH FORMAT: (76E15.6)           



                       INITIAL HEAD FOR LAYER   7
 READING ON UNIT   13 WITH FORMAT: (76E15.6)           
 # Output control package file for MODFLOW, generated by Flopy.

 OUTPUT CONTROL IS SPECIFIED ONLY AT TIME STEPS FOR WHICH OUTPUT IS DESIRED
 COMPACT CELL-BY-CELL BUDGET FILES WILL BE WRITTEN
 AUXILIARY DATA WILL BE SAVED IN CELL-BY-CELL BUDGET FILES
 HEAD PRINT FORMAT CODE IS   0    DRAWDOWN PRINT FORMAT CODE IS   0
 HEADS WILL BE SAVED ON UNIT   51    DRAWDOWNS WILL BE SAVED ON UNIT   52
 # NWT for MODFLOW-NWT, generated by Flopy.

 NWT1 -- Newton Solver, VERSION 1.0.9, 07/01/2014
         INPUT READ FROM UNIT 32

 COMPLEX OPTION:
 DEFAULT SOLVER INPUT VALUES REFLECT STRONGLY NONLINEAR MODEL
 ***XMD linear solver will be used***
 
   CONVERGENCE CRITERION OF   0.100000E-03 FOR HEAD SOLUTION
   AND A TOLERANCE OF   0.100000E+02 FOR FLOW SOLUTION AND 
   A MAXIMUM OF ***** OUTER ITERATIONS. 


   D-B-D REDUCTION FACTOR OF    0.850000E+00 AND 
   A D-B-D INCREASE FACTOR OF    0.100000E-04 AND 
   A D-B-D RELAXATION OF    0.000000E+00 AND 
   A MOMENTUM FACTOR OF    0.100000E+00 .


   BACKTRACKING IS ACTIVE 
   THE MAXIMUM NUMBER OF BACKTRACKS IS    50 AND 
   THE BACKTRACKING TOLERANCE IS    0.110000E+01 AND
   THE BACKTRACKING REDUCTION FACTOR IS    0.700000E+00

 XMD -- LINEAR SOLUTION BY XMD PACKAGE VERSION 1.30
     BY MOTOMU IBARAKI, OHIO STATE UNIVERSITY, COLOMBUS, OH
                 INPUT READ FROM UNIT 32
 ACCELERATION METHOD                    (IACL) =         2
 NODE ORDERING FLAG                   (NORDER) =         1
 LEVEL OF FILL                         (LEVEL) =         5
 MAXIMUM NUMBER OF ORTHOGONALIZATIONS  (NORTH) =         7
 INDEX FOR USING REDUCED SYSTEM      (IREDSYS) =         1
 RESID. REDUCTION CONVERGE CRITERION  (RRCTOL) =  0.000000E+00
 INDEX FOR USING DROP TOLERANCE     (IDROPTOL) =         1
 DROP TOLERANCE VALUE                  (EPSRN) =  0.100000E-04
 CONVERGENCE CRITERIA OF           (HCLOSEXMD) =  0.100000E-04
 MAX. NUMBER OF LINEAR ITERATIONS  (MXITERXMD) =        50


 UPW1 -- UPSTREAM WEIGHTING FLOW PACKAGE, VERSION 1.0.6, 12/05/2012
         INPUT READ FROM UNIT 31

 # UPW for MODFLOW-NWT, generated by Flopy.
 CELL-BY-CELL FLOWS WILL BE SAVED ON UNIT   53
 No named parameters

   LAYER FLAGS:
 LAYER       LAYTYP          LAYAVG    CHANI           LAYVKA           LAYWET
 ---------------------------------------------------------------------------
    1             1             0     1.000E+00             0             0
    2             1             0     1.000E+00             0             0
    3             1             0     1.000E+00             0             0
    4             1             0     1.000E+00             0             0
    5             1             0     1.000E+00             0             0
    6             1             0     1.000E+00             0             0
    7             1             0     1.000E+00             0             0

   INTERPRETATION OF LAYER FLAGS:
                        INTERBLOCK     HORIZONTAL    DATA IN
         LAYER TYPE   TRANSMISSIVITY   ANISOTROPY   ARRAY VKA   WETTABILITY
 LAYER   (LAYTYP)        (LAYAVG)      (CHANI)     (LAYVKA)       (LAYWET)
 ---------------------------------------------------------------------------
    1   CONVERTIBLE      HARMONIC     1.000E+00    VERTICAL K  NON-WETTABLE
    2   CONVERTIBLE      HARMONIC     1.000E+00    VERTICAL K  NON-WETTABLE
    3   CONVERTIBLE      HARMONIC     1.000E+00    VERTICAL K  NON-WETTABLE
    4   CONVERTIBLE      HARMONIC     1.000E+00    VERTICAL K  NON-WETTABLE
    5   CONVERTIBLE      HARMONIC     1.000E+00    VERTICAL K  NON-WETTABLE
    6   CONVERTIBLE      HARMONIC     1.000E+00    VERTICAL K  NON-WETTABLE
    7   CONVERTIBLE      HARMONIC     1.000E+00    VERTICAL K  NON-WETTABLE



              HYD. COND. ALONG ROWS FOR LAYER   1
 READING ON UNIT   31 WITH FORMAT: (76E15.6)           



                VERTICAL HYD. COND. FOR LAYER   1
 READING ON UNIT   31 WITH FORMAT: (76E15.6)           



                   SPECIFIC STORAGE FOR LAYER   1
 READING ON UNIT   31 WITH FORMAT: (76E15.6)           



                     SPECIFIC YIELD FOR LAYER   1
 READING ON UNIT   31 WITH FORMAT: (76E15.6)           



              HYD. COND. ALONG ROWS FOR LAYER   2
 READING ON UNIT   31 WITH FORMAT: (76E15.6)           



                VERTICAL HYD. COND. FOR LAYER   2
 READING ON UNIT   31 WITH FORMAT: (76E15.6)           



                   SPECIFIC STORAGE FOR LAYER   2
 READING ON UNIT   31 WITH FORMAT: (76E15.6)           



                     SPECIFIC YIELD FOR LAYER   2
 READING ON UNIT   31 WITH FORMAT: (76E15.6)           



              HYD. COND. ALONG ROWS FOR LAYER   3
 READING ON UNIT   31 WITH FORMAT: (76E15.6)           



                VERTICAL HYD. COND. FOR LAYER   3
 READING ON UNIT   31 WITH FORMAT: (76E15.6)           



                   SPECIFIC STORAGE FOR LAYER   3
 READING ON UNIT   31 WITH FORMAT: (76E15.6)           



                     SPECIFIC YIELD FOR LAYER   3
 READING ON UNIT   31 WITH FORMAT: (76E15.6)           



              HYD. COND. ALONG ROWS FOR LAYER   4
 READING ON UNIT   31 WITH FORMAT: (76E15.6)           



                VERTICAL HYD. COND. FOR LAYER   4
 READING ON UNIT   31 WITH FORMAT: (76E15.6)           



                   SPECIFIC STORAGE FOR LAYER   4
 READING ON UNIT   31 WITH FORMAT: (76E15.6)           



                     SPECIFIC YIELD FOR LAYER   4
 READING ON UNIT   31 WITH FORMAT: (76E15.6)           



              HYD. COND. ALONG ROWS FOR LAYER   5
 READING ON UNIT   31 WITH FORMAT: (76E15.6)           



                VERTICAL HYD. COND. FOR LAYER   5
 READING ON UNIT   31 WITH FORMAT: (76E15.6)           



                   SPECIFIC STORAGE FOR LAYER   5
 READING ON UNIT   31 WITH FORMAT: (76E15.6)           



                     SPECIFIC YIELD FOR LAYER   5
 READING ON UNIT   31 WITH FORMAT: (76E15.6)           



              HYD. COND. ALONG ROWS FOR LAYER   6
 READING ON UNIT   31 WITH FORMAT: (76E15.6)           



                VERTICAL HYD. COND. FOR LAYER   6
 READING ON UNIT   31 WITH FORMAT: (76E15.6)           



                   SPECIFIC STORAGE FOR LAYER   6
 READING ON UNIT   31 WITH FORMAT: (76E15.6)           



                     SPECIFIC YIELD FOR LAYER   6
 READING ON UNIT   31 WITH FORMAT: (76E15.6)           



              HYD. COND. ALONG ROWS FOR LAYER   7
 READING ON UNIT   31 WITH FORMAT: (76E15.6)           



                VERTICAL HYD. COND. FOR LAYER   7
 READING ON UNIT   31 WITH FORMAT: (76E15.6)           



                   SPECIFIC STORAGE FOR LAYER   7
 READING ON UNIT   31 WITH FORMAT: (76E15.6)           



                     SPECIFIC YIELD FOR LAYER   7
 READING ON UNIT   31 WITH FORMAT: (76E15.6)           

 WEL -- WELL PACKAGE, VERSION 1.0.6, 12/05/2012 INPUT READ FROM UNIT   20
 # Well file for MODFLOW, generated by Flopy.
 No named parameters
 MAXIMUM OF    105 ACTIVE WELLS AT ONE TIME
 CELL-BY-CELL FLOWS WILL BE SAVED ON UNIT   53
 No named parameters
  PHIRAMP WILL BE SET TO A DEFAULT VALUE OF 0.05
  WELLS WITH REDUCED PUMPING WILL BE REPORTED TO THE MAIN LISTING FILE


     0 Well parameters

 RIV -- RIVER PACKAGE, VERSION 7, 5/2/2005 INPUT READ FROM UNIT   18
 # RIV for MODFLOW, generated by Flopy.
 No named parameters
 MAXIMUM OF    284 ACTIVE RIVER REACHES AT ONE TIME
 CELL-BY-CELL FLOWS WILL BE SAVED ON UNIT   53


     0 River parameters

 GHB -- GENERAL-HEAD BOUNDARY PACKAGE, VERSION 7, 5/2/2005
         INPUT READ FROM UNIT   23
 # GHB for MODFLOW, generated by Flopy.
 No named parameters
 MAXIMUM OF    973 ACTIVE GHB CELLS AT ONE TIME
 CELL-BY-CELL FLOWS WILL BE SAVED ON UNIT   53


     0 GHB parameters

 RCH -- RECHARGE PACKAGE, VERSION 7, 5/2/2005 INPUT READ FROM UNIT   19
 # RCH for MODFLOW, generated by Flopy.
 No named parameters
 OPTION 3 -- RECHARGE TO HIGHEST ACTIVE NODE IN EACH VERTICAL COLUMN
 CELL-BY-CELL FLOWS WILL BE SAVED ON UNIT   53


     0 Recharge parameters


 ***Link-MT3DMS Package v7***
 OPENING LINK-MT3DMS OUTPUT FILE: mt3d_link.ftl                                                                                                                                                                                           
 ON UNIT NUMBER:    54
 FILE TYPE: UNFORMATTED
 HEADER OPTION: EXTENDED
 ***Link-MT3DMS Package v7***

1
                            STRESS PERIOD NO.    1, LENGTH =  1.0000000    
                            -----------------------------------------------

                              NUMBER OF TIME STEPS =     1

                               MULTIPLIER FOR DELT =     1.000

                            INITIAL TIME STEP SIZE =  1.0000000    

 WELL NO.  LAYER   ROW   COL   STRESS RATE         
 --------------------------------------------------
      1      4     72     29       0.000    
      2      3     72     29       0.000    
      3      4     99     29       0.000    
      4      3     99     29       0.000    
      5      6    100     30       0.000    
      6      3    101     30       0.000    
      7      4    101     31       0.000    
      8      1    105     31       0.000    
      9      4     52     32       0.000    
     10      6     90     34       0.000    
     11      3     52     35       0.000    
     12      5     87     35       0.000    
     13      4     88     36       0.000    
     14      4     89     37       0.000    
     15      6     93     37       0.000    
     16      4     53     38       0.000    
     17      4     59     38       0.000    
     18      4     81     38       0.000    
     19      4     44     39       0.000    
     20      4     52     39       0.000    
     21      4     56     39       0.000    
     22      4     57     39       0.000    
     23      4     68     39       0.000    
     24      4     82     39       0.000    
     25      6     55     40       0.000    
     26      6     58     40       0.000    
     27      4     62     40       0.000    
     28      4     68     40       0.000    
     29      3     74     40       0.000    
     30      3     74     40       0.000    
     31      4     76     40       0.000    
     32      6     59     41       0.000    
     33      6     59     41       0.000    
     34      6     65     41       0.000    
     35      6     65     41       0.000    
     36      4     66     41       0.000    
     37      6     69     41       0.000    
     38      4     70     41       0.000    
     39      6     71     41       0.000    
     40      3     72     41       0.000    
     41      4     75     41       0.000    
     42      4     52     42       0.000    
     43      6     58     42       0.000    
     44      4     64     42       0.000    
     45      6     65     42       0.000    
     46      4     66     42       0.000    
     47      6     69     42       0.000    
     48      6     69     42       0.000    
     49      4     70     42       0.000    
     50      7     72     42       0.000    
     51      4     72     42       0.000    
     52      4     72     42       0.000    
     53      4     46     43       0.000    
     54      6     54     43       0.000    
     55      6     57     43       0.000    
     56      6     64     43       0.000    
     57      4     64     43       0.000    
     58      3     66     43       0.000    
     59      3     68     43       0.000    
     60      3     68     43       0.000    
     61      3     69     43       0.000    
     62      4     69     43       0.000    
     63      4     47     44       0.000    
     64      4     63     44       0.000    
     65      4     64     44       0.000    
     66      4     66     44       0.000    
     67      6     66     44       0.000    
     68      4     66     44       0.000    
     69      4     66     44       0.000    
     70      3     46     45       0.000    
     71      4     51     45       0.000    
     72      6     66     45       0.000    
     73      4     50     47       0.000    
     74      3     43     49       0.000    
     75      4     52     52       0.000    
     76      4     54     53       0.000    
     77      6     57     53       0.000    
     78      4     54     54       0.000    
     79      5     39     20       0.000    
     80      4     39     20       0.000    
     81      2     39     20       0.000    
     82      2     97     23       0.000    
     83      6     25     25       0.000    
     84      4     25     25       0.000    
     85      2     25     25       0.000    
     86      2     25     25       0.000    
     87      4     49     32       0.000    
     88      6     99     33       0.000    
     89      4     99     33       0.000    
     90      6     85     38       0.000    
     91      1     85     38       0.000    
     92      6     56     41       0.000    
     93      4     56     48       0.000    
     94      4     50     49       0.000    
     95      2     50     49       0.000    
     96      6     55     57       0.000    
     97      1     55     57       0.000    
     98      3     81     59       0.000    
     99      7     85     62       0.000    
    100      3     66     66       0.000    
    101      1     66     66       0.000    
    102      3     80     66       0.000    
    103      1     80     66       0.000    
    104      7     74     69       0.000    
    105      1     74     69       0.000    

    105 WELLS

 REACH NO.  LAYER   ROW   COL     STAGE      CONDUCTANCE     BOTTOM EL.         
 -------------------------------------------------------------------------------
      1      1    116     30      0.4062E+06       160.3          0.4062E+06
      2      1    110     31      0.4062E+06       324.0          0.4062E+06
      3      1    111     31      0.4062E+06       218.5          0.4062E+06
      4      1    113     31      0.4062E+06       262.3          0.4062E+06
      5      1    114     31      0.4062E+06       514.4          0.4062E+06
      6      1    115     31      0.4062E+06       577.6          0.4062E+06
      7      1    116     31      0.4062E+06       782.2          0.4062E+06
      8      1    117     31      0.4062E+06       103.9          0.4062E+06
      9      1    118     31      0.4062E+06       153.3          0.4062E+06
     10      1    101     32      0.4062E+06       675.0          0.4062E+06
     11      1    102     32      0.4062E+06       250.1          0.4062E+06
     12      1    104     32      0.4062E+06       152.3          0.4062E+06
     13      1    105     32      0.4062E+06       599.0          0.4062E+06
     14      1    106     32      0.4062E+06       603.7          0.4062E+06
     15      1    107     32      0.4062E+06       575.3          0.4062E+06
     16      1    108     32      0.4062E+06       575.4          0.4062E+06
     17      1    109     32      0.4062E+06       555.1          0.4062E+06
     18      1    110     32      0.4062E+06       223.6          0.4062E+06
     19      1    111     32      0.4062E+06       387.7          0.4062E+06
     20      1    112     32      0.4062E+06       565.3          0.4062E+06
     21      1    113     32      0.4062E+06       484.3          0.4062E+06
     22      1    116     32      0.4062E+06       104.5          0.4062E+06
     23      1    117     32      0.4062E+06       477.2          0.4062E+06
     24      1    118     32      0.4062E+06       622.8          0.4062E+06
     25      1    119     32      0.4062E+06       141.8          0.4062E+06
     26      1     99     33      0.4062E+06       97.78          0.4062E+06
     27      1    100     33      0.4062E+06       697.6          0.4062E+06
     28      1    101     33      0.4062E+06       146.2          0.4062E+06
     29      1    102     33      0.4062E+06       314.3          0.4062E+06
     30      1    103     33      0.4062E+06       527.4          0.4062E+06
     31      1    104     33      0.4062E+06       672.0          0.4062E+06
     32      1    119     33      0.4062E+06       502.2          0.4062E+06
     33      1    120     33      0.4062E+06       546.2          0.4062E+06
     34      1    121     33      0.4062E+06       730.6          0.4062E+06
     35      1    122     33      0.4062E+06       233.7          0.4062E+06
     36      1     97     34      0.4062E+06       158.8          0.4062E+06
     37      1     98     34      0.4062E+06       539.0          0.4062E+06
     38      1     99     34      0.4062E+06       605.9          0.4062E+06
     39      1     95     35      0.4062E+06       147.9          0.4062E+06
     40      1     96     35      0.4062E+06       649.4          0.4062E+06
     41      1     97     35      0.4062E+06       604.8          0.4062E+06
     42      1     95     36      0.4062E+06       702.3          0.4062E+06
     43      1     96     36      0.4062E+06       118.5          0.4062E+06
     44      1     89     37      0.4062E+06       213.9          0.4062E+06
     45      1     90     37      0.4062E+06       244.4          0.4062E+06
     46      1     92     37      0.4062E+06       415.7          0.4062E+06
     47      1     93     37      0.4062E+06       326.7          0.4062E+06
     48      1     94     37      0.4062E+06       864.6          0.4062E+06
     49      1     95     37      0.4062E+06       48.27          0.4062E+06
     50      1     89     38      0.4062E+06       556.4          0.4062E+06
     51      1     90     38      0.4062E+06       457.2          0.4062E+06
     52      1     91     38      0.4062E+06       576.7          0.4062E+06
     53      1     92     38      0.4062E+06       541.7          0.4062E+06
     54      1     93     38      0.4062E+06       302.5          0.4062E+06
     55      1     94     38      0.4062E+06       88.02          0.4062E+06
     56      1     82     39      0.4062E+06       73.27          0.4062E+06
     57      1     83     39      0.4062E+06       344.9          0.4062E+06
     58      1     84     39      0.4062E+06       238.7          0.4062E+06
     59      1     85     39      0.4062E+06       335.9          0.4062E+06
     60      1     86     39      0.4062E+06       517.9          0.4062E+06
     61      1     88     39      0.4062E+06       671.0          0.4062E+06
     62      1     89     39      0.4062E+06       875.2          0.4062E+06
     63      1     80     40      0.4062E+06       151.4          0.4062E+06
     64      1     81     40      0.4062E+06       733.4          0.4062E+06
     65      1     82     40      0.4062E+06       888.7          0.4062E+06
     66      1     83     40      0.4062E+06       806.9          0.4062E+06
     67      1     84     40      0.4062E+06       595.6          0.4062E+06
     68      1     85     40      0.4062E+06       630.1          0.4062E+06
     69      1     86     40      0.4062E+06       631.6          0.4062E+06
     70      1     87     40      0.4062E+06       715.2          0.4062E+06
     71      1     88     40      0.4062E+06       191.1          0.4062E+06
     72      1     89     40      0.4062E+06       103.4          0.4062E+06
     73      1     80     41      0.4062E+06       522.5          0.4062E+06
     74      1     81     41      0.4062E+06       199.2          0.4062E+06
     75      1     82     41      0.4062E+06       202.1          0.4062E+06
     76      1     85     41      0.4062E+06       163.8          0.4062E+06
     77      1     86     41      0.4062E+06       278.4          0.4062E+06
     78      1     80     42      0.4062E+06       691.3          0.4062E+06
     79      1     79     43      0.4062E+06       607.9          0.4062E+06
     80      1     80     43      0.4062E+06       536.5          0.4062E+06
     81      1     73     44      0.4062E+06       637.0          0.4062E+06
     82      1     74     44      0.4062E+06       432.4          0.4062E+06
     83      1     75     44      0.4062E+06       728.0          0.4062E+06
     84      1     76     44      0.4062E+06       786.8          0.4062E+06
     85      1     77     44      0.4062E+06       377.4          0.4062E+06
     86      1     78     44      0.4062E+06       773.9          0.4062E+06
     87      1     79     44      0.4062E+06       123.3          0.4062E+06
     88      1     72     45      0.4062E+06       642.7          0.4062E+06
     89      1     73     45      0.4062E+06      0.3316          0.4062E+06
     90      1     74     45      0.4062E+06       616.5          0.4062E+06
     91      1     76     45      0.4062E+06       161.5          0.4062E+06
     92      1     77     45      0.4062E+06       304.2          0.4062E+06
     93      1     78     45      0.4062E+06       324.9          0.4062E+06
     94      1     61     46      0.4062E+06       591.6          0.4062E+06
     95      1     62     46      0.4062E+06       798.7          0.4062E+06
     96      1     63     46      0.4062E+06       394.8          0.4062E+06
     97      1     72     46      0.4062E+06       819.7          0.4062E+06
     98      1     57     47      0.4062E+06       230.1          0.4062E+06
     99      1     58     47      0.4062E+06       689.3          0.4062E+06
    100      1     59     47      0.4062E+06       838.1          0.4062E+06
    101      1     60     47      0.4062E+06       584.1          0.4062E+06
    102      1     61     47      0.4062E+06       820.0          0.4062E+06
    103      1     63     47      0.4062E+06       532.3          0.4062E+06
    104      1     64     47      0.4062E+06       690.5          0.4062E+06
    105      1     65     47      0.4062E+06       571.6          0.4062E+06
    106      1     66     47      0.4062E+06       521.1          0.4062E+06
    107      1     67     47      0.4062E+06       631.3          0.4062E+06
    108      1     68     47      0.4062E+06       577.2          0.4062E+06
    109      1     69     47      0.4062E+06       370.2          0.4062E+06
    110      1     70     47      0.4062E+06       684.7          0.4062E+06
    111      1     71     47      0.4062E+06       733.7          0.4062E+06
    112      1     72     47      0.4062E+06       196.4          0.4062E+06
    113      1     57     48      0.4062E+06       866.4          0.4062E+06
    114      1     66     48      0.4062E+06       184.4          0.4062E+06
    115      1     69     48      0.4062E+06       337.4          0.4062E+06
    116      1     70     48      0.4062E+06       235.0          0.4062E+06
    117      1     40     49      0.4062E+06       396.0          0.4062E+06
    118      1     41     49      0.4062E+06       250.3          0.4062E+06
    119      1     43     49      0.4062E+06       103.2          0.4062E+06
    120      1     56     49      0.4062E+06       816.8          0.4062E+06
    121      1     57     49      0.4062E+06       485.9          0.4062E+06
    122      1     40     50      0.4062E+06       480.2          0.4062E+06
    123      1     41     50      0.4062E+06       879.7          0.4062E+06
    124      1     42     50      0.4062E+06       801.1          0.4062E+06
    125      1     43     50      0.4062E+06       1137.          0.4062E+06
    126      1     44     50      0.4062E+06       503.1          0.4062E+06
    127      1     46     50      0.4062E+06       340.2          0.4062E+06
    128      1     47     50      0.4062E+06       872.9          0.4062E+06
    129      1     48     50      0.4062E+06       260.8          0.4062E+06
    130      1     53     50      0.4062E+06       70.87          0.4062E+06
    131      1     54     50      0.4063E+06       344.5          0.4062E+06
    132      1     55     50      0.4063E+06       717.7          0.4063E+06
    133      1     56     50      0.4063E+06       329.5          0.4063E+06
    134      1     43     51      0.4063E+06       72.79          0.4063E+06
    135      1     44     51      0.4063E+06       715.0          0.4063E+06
    136      1     45     51      0.4063E+06       709.9          0.4063E+06
    137      1     46     51      0.4063E+06       736.1          0.4063E+06
    138      1     48     51      0.4063E+06       660.8          0.4063E+06
    139      1     49     51      0.4063E+06       1051.          0.4063E+06
    140      1     50     51      0.4063E+06       759.9          0.4063E+06
    141      1     51     51      0.4063E+06       783.3          0.4063E+06
    142      1     52     51      0.4063E+06       1020.          0.4063E+06
    143      1     53     51      0.4063E+06       1080.          0.4063E+06
    144      1     54     51      0.4063E+06       782.9          0.4063E+06
    145      1     51     52      0.4063E+06       147.6          0.4063E+06
    146      1      1     10       79.99           62.76           79.89    
    147      1      1     11       80.42           1159.           80.32    
    148      1      2     11       79.99           813.6           79.89    
    149      1      1     12       80.42           406.8           80.32    
    150      1      2     12       80.51           739.0           80.41    
    151      1      2     13       80.51           1119.           80.41    
    152      1      3     13       80.97           346.0           80.87    
    153      1      2     14       80.97           280.9           80.87    
    154      1      3     14       80.97           711.9           80.87    
    155      1      4     14       80.27           907.7           80.17    
    156      1      5     14       81.19           125.1           81.09    
    157      1      4     15       81.19           263.2           81.09    
    158      1      5     15       81.19           910.5           81.09    
    159      1      7     15       81.50           429.8           81.40    
    160      1      8     15       82.41           538.6           82.31    
    161      1      5     16       81.55           825.2           81.45    
    162      1      6     16       81.95           609.2           81.85    
    163      1      7     16       78.84           1340.           78.74    
    164      1      8     16       82.35           1397.           82.25    
    165      1      9     16       81.88           1077.           81.78    
    166      1     10     16       79.67           754.2           79.57    
    167      1      8     17       82.35           601.3           82.25    
    168      1      9     17       82.35           607.6           82.25    
    169      1     10     17       79.67           1230.           79.57    
    170      1     11     17       82.21           786.0           82.11    
    171      1     12     17       83.20           523.7           83.10    
    172      1     11     18       83.20           190.6           83.10    
    173      1     12     18       83.20           847.1           83.10    
    174      1     13     18       83.23           112.1           83.13    
    175      1     12     19       82.61           995.9           82.51    
    176      1     13     19       82.61           1060.           82.51    
    177      1     14     19       82.49           1125.           82.39    
    178      1     15     19       83.95           760.2           83.85    
    179      1     16     19       83.16           39.62           83.06    
    180      1     17     19       84.12           427.1           84.02    
    181      1     12     20       82.61           116.6           82.51    
    182      1     13     20       82.61           39.39           82.51    
    183      1     14     20       82.61           47.54           82.51    
    184      1     15     20       83.95           444.3           83.85    
    185      1     16     20       84.13           1211.           84.03    
    186      1     17     20       84.12           1107.           84.02    
    187      1     18     20       84.56           416.3           84.46    
    188      1     17     21       84.13           750.7           84.03    
    189      1     18     21       84.56           788.9           84.46    
    190      1     19     21       85.02           346.3           84.92    
    191      1     19     22       85.02           652.3           84.92    
    192      1     20     22       85.06           460.2           84.96    
    193      1     20     23       85.06           462.7           84.96    
    194      1     21     23       85.30           329.5           85.20    
    195      1     20     24       84.74           179.1           84.64    
    196      1     21     24       84.74           926.5           84.64    
    197      1     20     25       84.74           253.2           84.64    
    198      1     21     25       84.74           1035.           84.64    
    199      1     22     25       86.21           526.3           86.11    
    200      1     22     26       86.21           1618.           86.11    
    201      1     23     26       86.52           553.0           86.42    
    202      1     22     27       86.52           300.3           86.42    
    203      1     23     27       86.52           535.3           86.42    
    204      1     24     27       86.68           714.9           86.58    
    205      1     23     28       83.65           685.2           83.55    
    206      1     24     28       86.68           1158.           86.58    
    207      1     24     29       83.72           1322.           83.62    
    208      1     25     29       85.34           649.1           85.24    
    209      1     26     29       87.12           664.3           87.02    
    210      1     27     29       90.33           338.2           90.23    
    211      1     24     30       83.72           285.7           83.62    
    212      1     25     30       85.34           269.5           85.24    
    213      1     27     30       90.33           533.0           90.23    
    214      1     27     31       88.02           519.5           87.92    
    215      1     28     31       88.02           128.8           87.92    
    216      1     28     32       89.05           764.4           88.95    
    217      1     28     33       89.05           717.2           88.95    
    218      1     29     33       83.13           579.3           83.03    
    219      1     28     34       83.13           256.2           83.03    
    220      1     29     34       83.13           820.0           83.03    
    221      1     30     34       88.44           346.1           88.34    
    222      1     30     35       88.24           634.8           88.14    
    223      1     31     35       89.54           179.4           89.44    
    224      1     32     35       90.02           21.87           89.92    
    225      1     30     36       88.24           312.9           88.14    
    226      1     31     36       89.54           506.6           89.44    
    227      1     32     36       90.22           794.8           90.12    
    228      1     31     37       89.41           5.321           89.31    
    229      1     32     37       89.41           752.5           89.31    
    230      1     31     38       90.72           908.6           90.62    
    231      1     32     38       90.72           964.8           90.62    
    232      1     33     38       91.15           420.2           91.05    
    233      1     34     38       91.11           526.0           91.01    
    234      1     35     38       92.98           804.5           92.88    
    235      1     36     38       93.52           10.58           93.42    
    236      1     31     39       90.72           95.97           90.62    
    237      1     32     39       90.72           430.0           90.62    
    238      1     33     39       91.15           525.8           91.05    
    239      1     34     39       88.92           1139.           88.82    
    240      1     35     39       92.98           697.9           92.88    
    241      1     36     39       95.24           503.6           95.14    
    242      1     33     40       90.52           641.2           90.42    
    243      1     34     40       90.77           270.2           90.67    
    244      1     35     40       93.89           118.7           93.79    
    245      1     33     41       90.52           945.7           90.42    
    246      1     34     41       94.20           82.32           94.10    
    247      1     33     42       94.20           426.5           94.10    
    248      1     34     42       94.20           533.9           94.10    
    249      1     35     42       93.83           897.7           93.73    
    250      1     36     42       95.13           170.4           95.03    
    251      1     35     43       94.22           802.8           94.12    
    252      1     36     43       94.22           368.1           94.12    
    253      1     34     44       91.49           411.7           91.39    
    254      1     35     44       91.49           606.3           91.39    
    255      1     34     45       90.18           693.7           90.08    
    256      1     35     45       92.00           745.2           91.90    
    257      1     36     45       95.01           580.8           94.91    
    258      1     37     45       95.20           686.0           95.10    
    259      1     38     45       95.84           455.0           95.74    
    260      1     35     46       92.00           2.088           91.90    
    261      1     37     46       89.99           976.2           89.89    
    262      1     38     46       93.47           64.65           93.37    
    263      1     37     47       89.99           721.8           89.89    
    264      1     37     48       92.49           959.5           92.39    
    265      1     38     48       92.49           687.8           92.39    
    266      1     39     48       96.14           524.3           96.04    
    267      1     40     48       91.66           460.5           91.56    
    268      1     37     49       92.49           126.6           92.39    
    269      1     38     49       92.49           55.82           92.39    
    270      1     39     49       92.49           302.9           92.39    
    271      1     40     49       91.66           1077.           91.56    
    272      1     39     50       96.11           587.7           96.01    
    273      1     40     50       96.11           414.0           96.01    
    274      1     40     51       96.11           433.1           96.01    
    275      1     41     51       95.26           312.1           95.16    
    276      1     40     52       92.67           621.7           92.57    
    277      1     40     53       92.67           519.8           92.57    
    278      1     41     53       92.67           661.0           92.57    
    279      1     40     54       95.00           260.4           94.90    
    280      1     41     54       95.04           789.9           94.94    
    281      1     40     55       95.00           846.2           94.90    
    282      1     41     55       95.00           50.03           94.90    
    283      1     40     56       95.11           334.7           95.01    
    284      1     41     56       95.11           320.4           95.01    

    284 RIVER REACHES

 BOUND. NO. LAYER   ROW   COL     STAGE      CONDUCTANCE         
 ----------------------------------------------------------------
      1      1      1     10       80.01           36.46    
      2      2      1     10       80.01           210.9    
      3      3      1     10       80.01           105.4    
      4      4      1     10       80.01           34.53    
      5      5      1     10       80.01           87.45    
      6      6      1     10       80.01           719.7    
      7      7      1     10       80.01           480.0    
      8      1      1     11       80.44           52.50    
      9      2      1     11       80.44           207.1    
     10      3      1     11       80.44           103.6    
     11      4      1     11       80.44           17.45    
     12      5      1     11       80.44           94.69    
     13      6      1     11       80.44           763.7    
     14      7      1     11       80.44           496.0    
     15      1      2     11       80.01           36.46    
     16      2      2     11       80.01           210.9    
     17      3      2     11       80.01           105.4    
     18      4      2     11       80.01           34.53    
     19      5      2     11       80.01           87.45    
     20      6      2     11       80.01           719.7    
     21      7      2     11       80.01           480.0    
     22      1      1     12       80.44           52.50    
     23      2      1     12       80.44           207.1    
     24      3      1     12       80.44           103.6    
     25      4      1     12       80.44           17.45    
     26      5      1     12       80.44           94.69    
     27      6      1     12       80.44           763.7    
     28      7      1     12       80.44           496.0    
     29      1      2     12       80.53           121.6    
     30      2      2     12       80.53           121.6    
     31      3      2     12       80.53           121.6    
     32      4      2     12       80.53           101.0    
     33      5      2     12       80.53           25.26    
     34      6      2     12       80.53           785.2    
     35      7      2     12       80.53           50.00    
     36      1      2     13       80.53           121.6    
     37      2      2     13       80.53           121.6    
     38      3      2     13       80.53           121.6    
     39      4      2     13       80.53           101.0    
     40      5      2     13       80.53           25.26    
     41      6      2     13       80.53           785.2    
     42      7      2     13       80.53           50.00    
     43      1      3     13       80.99           16.25    
     44      2      3     13       80.99           227.2    
     45      3      3     13       80.99           113.6    
     46      4      3     13       80.99           117.3    
     47      5      3     13       80.99           29.32    
     48      6      3     13       80.99           798.8    
     49      7      3     13       80.99           50.00    
     50      1      2     14       80.99           16.25    
     51      2      2     14       80.99           227.2    
     52      3      2     14       80.99           113.6    
     53      4      2     14       80.99           117.3    
     54      5      2     14       80.99           29.32    
     55      6      2     14       80.99           798.8    
     56      7      2     14       80.99           50.00    
     57      1      3     14       80.99           16.25    
     58      2      3     14       80.99           227.2    
     59      3      3     14       80.99           113.6    
     60      4      3     14       80.99           117.3    
     61      5      3     14       80.99           29.32    
     62      6      3     14       80.99           798.8    
     63      7      3     14       80.99           50.00    
     64      1      4     14       80.29           15.00    
     65      2      4     14       80.29           222.7    
     66      3      4     14       80.29           111.3    
     67      4      4     14       80.29           123.9    
     68      5      4     14       80.29           30.97    
     69      6      4     14       80.29           771.9    
     70      7      4     14       80.29           50.00    
     71      1      5     14       81.21           15.00    
     72      2      5     14       81.21           218.8    
     73      3      5     14       81.21           109.4    
     74      4      5     14       81.21           145.3    
     75      5      5     14       81.21           36.31    
     76      6      5     14       81.21           761.8    
     77      7      5     14       81.21           50.00    
     78      1      4     15       81.21           15.00    
     79      2      4     15       81.21           218.8    
     80      3      4     15       81.21           109.4    
     81      4      4     15       81.21           145.3    
     82      5      4     15       81.21           36.31    
     83      6      4     15       81.21           761.8    
     84      7      4     15       81.21           50.00    
     85      1      5     15       81.21           15.00    
     86      2      5     15       81.21           218.8    
     87      3      5     15       81.21           109.4    
     88      4      5     15       81.21           145.3    
     89      5      5     15       81.21           36.31    
     90      6      5     15       81.21           761.8    
     91      7      5     15       81.21           50.00    
     92      1      7     15       81.52           25.90    
     93      2      7     15       81.52           216.2    
     94      3      7     15       81.52           108.1    
     95      4      7     15       81.52           163.9    
     96      5      7     15       81.52           40.97    
     97      6      7     15       81.52           705.5    
     98      7      7     15       81.52           50.00    
     99      1      8     15       82.43           37.18    
    100      2      8     15       82.43           216.1    
    101      3      8     15       82.43           108.1    
    102      4      8     15       82.43           161.9    
    103      5      8     15       82.43           40.49    
    104      6      8     15       82.43           683.6    
    105      7      8     15       82.43           499.1    
    106      1      5     16       81.57           117.7    
    107      2      5     16       81.57           117.7    
    108      3      5     16       81.57           117.7    
    109      4      5     16       81.57           153.7    
    110      5      5     16       81.57           38.42    
    111      6      5     16       81.57           782.0    
    112      7      5     16       81.57           50.00    
    113      1      6     16       81.97           119.0    
    114      2      6     16       81.97           119.0    
    115      3      6     16       81.97           119.0    
    116      4      6     16       81.97           159.3    
    117      5      6     16       81.97           39.83    
    118      6      6     16       81.97           746.7    
    119      7      6     16       81.97           50.00    
    120      1      7     16       78.86           114.9    
    121      2      7     16       78.86           114.9    
    122      3      7     16       78.86           114.9    
    123      4      7     16       78.86           159.9    
    124      5      7     16       78.86           39.97    
    125      6      7     16       78.86           713.3    
    126      7      7     16       78.86           50.00    
    127      1      8     16       82.37           122.9    
    128      2      8     16       82.37           122.9    
    129      3      8     16       82.37           122.9    
    130      4      8     16       82.37           158.4    
    131      5      8     16       82.37           39.61    
    132      6      8     16       82.37           686.7    
    133      7      8     16       82.37           50.00    
    134      1      9     16       81.90           34.45    
    135      2      9     16       81.90           220.9    
    136      3      9     16       81.90           110.4    
    137      4      9     16       81.90           161.4    
    138      5      9     16       81.90           40.34    
    139      6      9     16       81.90           652.7    
    140      7      9     16       81.90           489.3    
    141      1     10     16       79.69           123.8    
    142      2     10     16       79.69           123.8    
    143      3     10     16       79.69           123.8    
    144      4     10     16       79.69           159.2    
    145      5     10     16       79.69           39.80    
    146      6     10     16       79.69           618.6    
    147      7     10     16       79.69           478.1    
    148      1      8     17       82.37           122.9    
    149      2      8     17       82.37           122.9    
    150      3      8     17       82.37           122.9    
    151      4      8     17       82.37           158.4    
    152      5      8     17       82.37           39.61    
    153      6      8     17       82.37           686.7    
    154      7      8     17       82.37           50.00    
    155      1      9     17       82.37           122.9    
    156      2      9     17       82.37           122.9    
    157      3      9     17       82.37           122.9    
    158      4      9     17       82.37           158.4    
    159      5      9     17       82.37           39.61    
    160      6      9     17       82.37           686.7    
    161      7      9     17       82.37           50.00    
    162      1     10     17       79.69           123.8    
    163      2     10     17       79.69           123.8    
    164      3     10     17       79.69           123.8    
    165      4     10     17       79.69           159.2    
    166      5     10     17       79.69           39.80    
    167      6     10     17       79.69           618.6    
    168      7     10     17       79.69           478.1    
    169      1     11     17       82.23           130.9    
    170      2     11     17       82.23           130.9    
    171      3     11     17       82.23           130.9    
    172      4     11     17       82.23           160.1    
    173      5     11     17       82.23           40.03    
    174      6     11     17       82.23           583.5    
    175      7     11     17       82.23           473.5    
    176      1     12     17       83.22           39.27    
    177      2     12     17       83.22           247.3    
    178      3     12     17       83.22           123.7    
    179      4     12     17       83.22           158.4    
    180      5     12     17       83.22           39.61    
    181      6     12     17       83.22           537.4    
    182      7     12     17       83.22           462.4    
    183      1     11     18       83.22           39.27    
    184      2     11     18       83.22           247.3    
    185      3     11     18       83.22           123.7    
    186      4     11     18       83.22           158.4    
    187      5     11     18       83.22           39.61    
    188      6     11     18       83.22           537.4    
    189      7     11     18       83.22           462.4    
    190      1     12     18       83.22           39.27    
    191      2     12     18       83.22           247.3    
    192      3     12     18       83.22           123.7    
    193      4     12     18       83.22           158.4    
    194      5     12     18       83.22           39.61    
    195      6     12     18       83.22           537.4    
    196      7     12     18       83.22           462.4    
    197      1     13     18       83.25           37.75    
    198      2     13     18       83.25           257.5    
    199      3     13     18       83.25           128.7    
    200      4     13     18       83.25           151.9    
    201      5     13     18       83.25           37.98    
    202      6     13     18       83.25           487.2    
    203      7     13     18       83.25           446.4    
    204      1     12     19       82.63           38.08    
    205      2     12     19       82.63           263.1    
    206      3     12     19       82.63           131.6    
    207      4     12     19       82.63           144.4    
    208      5     12     19       82.63           36.09    
    209      6     12     19       82.63           493.0    
    210      7     12     19       82.63           448.3    
    211      1     13     19       82.63           38.08    
    212      2     13     19       82.63           263.1    
    213      3     13     19       82.63           131.6    
    214      4     13     19       82.63           144.4    
    215      5     13     19       82.63           36.09    
    216      6     13     19       82.63           493.0    
    217      7     13     19       82.63           448.3    
    218      1     14     19       82.51           26.07    
    219      2     14     19       82.51           271.3    
    220      3     14     19       82.51           135.7    
    221      4     14     19       82.51           141.4    
    222      5     14     19       82.51           35.35    
    223      6     14     19       82.51           441.1    
    224      7     14     19       82.51           428.3    
    225      1     15     19       83.97           44.24    
    226      2     15     19       83.97           281.7    
    227      3     15     19       83.97           140.8    
    228      4     15     19       83.97           120.9    
    229      5     15     19       83.97           30.21    
    230      6     15     19       83.97           409.4    
    231      7     15     19       83.97           419.8    
    232      1     16     19       83.18           38.65    
    233      2     16     19       83.18           289.9    
    234      3     16     19       83.18           145.0    
    235      4     16     19       83.18           109.8    
    236      5     16     19       83.18           27.46    
    237      6     16     19       83.18           377.2    
    238      7     16     19       83.18           405.7    
    239      1     17     19       84.14           43.74    
    240      2     17     19       84.14           299.0    
    241      3     17     19       84.14           149.5    
    242      4     17     19       84.14           96.73    
    243      5     17     19       84.14           24.18    
    244      6     17     19       84.14           346.7    
    245      7     17     19       84.14           395.5    
    246      1     12     20       82.63           38.08    
    247      2     12     20       82.63           263.1    
    248      3     12     20       82.63           131.6    
    249      4     12     20       82.63           144.4    
    250      5     12     20       82.63           36.09    
    251      6     12     20       82.63           493.0    
    252      7     12     20       82.63           448.3    
    253      1     13     20       82.63           38.08    
    254      2     13     20       82.63           263.1    
    255      3     13     20       82.63           131.6    
    256      4     13     20       82.63           144.4    
    257      5     13     20       82.63           36.09    
    258      6     13     20       82.63           493.0    
    259      7     13     20       82.63           448.3    
    260      1     14     20       82.63           38.08    
    261      2     14     20       82.63           263.1    
    262      3     14     20       82.63           131.6    
    263      4     14     20       82.63           144.4    
    264      5     14     20       82.63           36.09    
    265      6     14     20       82.63           493.0    
    266      7     14     20       82.63           448.3    
    267      1     15     20       83.97           44.24    
    268      2     15     20       83.97           281.7    
    269      3     15     20       83.97           140.8    
    270      4     15     20       83.97           120.9    
    271      5     15     20       83.97           30.21    
    272      6     15     20       83.97           409.4    
    273      7     15     20       83.97           419.8    
    274      1     16     20       84.15           163.5    
    275      2     16     20       84.15           163.5    
    276      3     16     20       84.15           163.5    
    277      4     16     20       84.15           105.9    
    278      5     16     20       84.15           26.46    
    279      6     16     20       84.15           391.7    
    280      7     16     20       84.15           415.2    
    281      1     17     20       84.14           43.74    
    282      2     17     20       84.14           299.0    
    283      3     17     20       84.14           149.5    
    284      4     17     20       84.14           96.73    
    285      5     17     20       84.14           24.18    
    286      6     17     20       84.14           346.7    
    287      7     17     20       84.14           395.5    
    288      1     18     20       84.58           172.2    
    289      2     18     20       84.58           172.2    
    290      3     18     20       84.58           172.2    
    291      4     18     20       84.58           87.87    
    292      5     18     20       84.58           21.97    
    293      6     18     20       84.58           335.7    
    294      7     18     20       84.58           396.4    
    295      1     17     21       84.15           163.5    
    296      2     17     21       84.15           163.5    
    297      3     17     21       84.15           163.5    
    298      4     17     21       84.15           105.9    
    299      5     17     21       84.15           26.46    
    300      6     17     21       84.15           391.7    
    301      7     17     21       84.15           415.2    
    302      1     18     21       84.58           172.2    
    303      2     18     21       84.58           172.2    
    304      3     18     21       84.58           172.2    
    305      4     18     21       84.58           87.87    
    306      5     18     21       84.58           21.97    
    307      6     18     21       84.58           335.7    
    308      7     18     21       84.58           396.4    
    309      1     19     21       85.04           48.64    
    310      2     19     21       85.04           322.4    
    311      3     19     21       85.04           161.2    
    312      4     19     21       85.04           98.97    
    313      5     19     21       85.04           24.74    
    314      6     19     21       85.04           324.6    
    315      7     19     21       85.04           403.0    
    316      1     19     22       85.04           48.64    
    317      2     19     22       85.04           322.4    
    318      3     19     22       85.04           161.2    
    319      4     19     22       85.04           98.97    
    320      5     19     22       85.04           24.74    
    321      6     19     22       85.04           324.6    
    322      7     19     22       85.04           403.0    
    323      1     20     22       85.08           48.97    
    324      2     20     22       85.08           329.7    
    325      3     20     22       85.08           164.8    
    326      4     20     22       85.08           106.9    
    327      5     20     22       85.08           26.72    
    328      6     20     22       85.08           325.9    
    329      7     20     22       85.08           411.1    
    330      1     20     23       85.08           48.97    
    331      2     20     23       85.08           329.7    
    332      3     20     23       85.08           164.8    
    333      4     20     23       85.08           106.9    
    334      5     20     23       85.08           26.72    
    335      6     20     23       85.08           325.9    
    336      7     20     23       85.08           411.1    
    337      1     21     23       85.32           49.64    
    338      2     21     23       85.32           335.8    
    339      3     21     23       85.32           167.9    
    340      4     21     23       85.32           116.1    
    341      5     21     23       85.32           29.02    
    342      6     21     23       85.32           320.5    
    343      7     21     23       85.32           416.8    
    344      1     20     24       84.76           184.2    
    345      2     20     24       84.76           184.2    
    346      3     20     24       84.76           184.2    
    347      4     20     24       84.76           124.4    
    348      5     20     24       84.76           31.09    
    349      6     20     24       84.76           327.0    
    350      7     20     24       84.76           422.7    
    351      1     21     24       84.76           184.2    
    352      2     21     24       84.76           184.2    
    353      3     21     24       84.76           184.2    
    354      4     21     24       84.76           124.4    
    355      5     21     24       84.76           31.09    
    356      6     21     24       84.76           327.0    
    357      7     21     24       84.76           422.7    
    358      1     20     25       84.76           184.2    
    359      2     20     25       84.76           184.2    
    360      3     20     25       84.76           184.2    
    361      4     20     25       84.76           124.4    
    362      5     20     25       84.76           31.09    
    363      6     20     25       84.76           327.0    
    364      7     20     25       84.76           422.7    
    365      1     21     25       84.76           184.2    
    366      2     21     25       84.76           184.2    
    367      3     21     25       84.76           184.2    
    368      4     21     25       84.76           124.4    
    369      5     21     25       84.76           31.09    
    370      6     21     25       84.76           327.0    
    371      7     21     25       84.76           422.7    
    372      1     22     25       86.23           187.3    
    373      2     22     25       86.23           187.3    
    374      3     22     25       86.23           187.3    
    375      4     22     25       86.23           134.8    
    376      5     22     25       86.23           33.71    
    377      6     22     25       86.23           308.5    
    378      7     22     25       86.23           424.0    
    379      1     22     26       86.23           187.3    
    380      2     22     26       86.23           187.3    
    381      3     22     26       86.23           187.3    
    382      4     22     26       86.23           134.8    
    383      5     22     26       86.23           33.71    
    384      6     22     26       86.23           308.5    
    385      7     22     26       86.23           424.0    
    386      1     23     26       86.54           184.6    
    387      2     23     26       86.54           184.6    
    388      3     23     26       86.54           184.6    
    389      4     23     26       86.54           145.1    
    390      5     23     26       86.54           36.29    
    391      6     23     26       86.54           279.0    
    392      7     23     26       86.54           415.1    
    393      1     22     27       86.54           184.6    
    394      2     22     27       86.54           184.6    
    395      3     22     27       86.54           184.6    
    396      4     22     27       86.54           145.1    
    397      5     22     27       86.54           36.29    
    398      6     22     27       86.54           279.0    
    399      7     22     27       86.54           415.1    
    400      1     23     27       86.54           184.6    
    401      2     23     27       86.54           184.6    
    402      3     23     27       86.54           184.6    
    403      4     23     27       86.54           145.1    
    404      5     23     27       86.54           36.29    
    405      6     23     27       86.54           279.0    
    406      7     23     27       86.54           415.1    
    407      1     24     27       86.70           177.0    
    408      2     24     27       86.70           177.0    
    409      3     24     27       86.70           177.0    
    410      4     24     27       86.70           160.7    
    411      5     24     27       86.70           40.17    
    412      6     24     27       86.70           212.5    
    413      7     24     27       86.70           390.0    
    414      1     23     28       83.67           171.6    
    415      2     23     28       83.67           171.6    
    416      3     23     28       83.67           171.6    
    417      4     23     28       83.67           163.1    
    418      5     23     28       83.67           40.77    
    419      6     23     28       83.67           250.6    
    420      7     23     28       83.67           398.9    
    421      1     24     28       86.70           177.0    
    422      2     24     28       86.70           177.0    
    423      3     24     28       86.70           177.0    
    424      4     24     28       86.70           160.7    
    425      5     24     28       86.70           40.17    
    426      6     24     28       86.70           212.5    
    427      7     24     28       86.70           390.0    
    428      1     24     29       83.74           165.6    
    429      2     24     29       83.74           165.6    
    430      3     24     29       83.74           165.6    
    431      4     24     29       83.74           173.2    
    432      5     24     29       83.74           43.29    
    433      6     24     29       83.74           171.6    
    434      7     24     29       83.74           368.5    
    435      1     25     29       85.36           27.26    
    436      2     25     29       85.36           306.0    
    437      3     25     29       85.36           153.0    
    438      4     25     29       85.36           179.8    
    439      5     25     29       85.36           44.96    
    440      6     25     29       85.36           94.62    
    441      7     25     29       85.36           340.0    
    442      1     26     29       87.14           35.50    
    443      2     26     29       87.14           302.3    
    444      3     26     29       87.14           151.1    
    445      4     26     29       87.14           176.8    
    446      5     26     29       87.14           44.19    
    447      6     26     29       87.14           15.02    
    448      7     26     29       87.14           311.0    
    449      1     27     29       90.35           43.22    
    450      2     27     29       90.35           306.3    
    451      3     27     29       90.35           153.1    
    452      4     27     29       90.35           135.0    
    453      5     27     29       90.35           33.76    
    454      6     27     29       90.35           250.0    
    455      7     27     29       90.35           41.67    
    456      1     24     30       83.74           165.6    
    457      2     24     30       83.74           165.6    
    458      3     24     30       83.74           165.6    
    459      4     24     30       83.74           173.2    
    460      5     24     30       83.74           43.29    
    461      6     24     30       83.74           171.6    
    462      7     24     30       83.74           368.5    
    463      1     25     30       85.36           27.26    
    464      2     25     30       85.36           306.0    
    465      3     25     30       85.36           153.0    
    466      4     25     30       85.36           179.8    
    467      5     25     30       85.36           44.96    
    468      6     25     30       85.36           94.62    
    469      7     25     30       85.36           340.0    
    470      1     27     30       90.35           43.22    
    471      2     27     30       90.35           306.3    
    472      3     27     30       90.35           153.1    
    473      4     27     30       90.35           135.0    
    474      5     27     30       90.35           33.76    
    475      6     27     30       90.35           250.0    
    476      7     27     30       90.35           41.67    
    477      1     27     31       88.04           31.56    
    478      2     27     31       88.04           305.7    
    479      3     27     31       88.04           152.9    
    480      4     27     31       88.04           27.51    
    481      5     27     31       88.04           6.878    
    482      6     27     31       88.04           204.7    
    483      7     27     31       88.04           34.12    
    484      1     28     31       88.04           31.56    
    485      2     28     31       88.04           305.7    
    486      3     28     31       88.04           152.9    
    487      4     28     31       88.04           27.51    
    488      5     28     31       88.04           6.878    
    489      6     28     31       88.04           204.7    
    490      7     28     31       88.04           34.12    
    491      1     28     32       89.07           43.93    
    492      2     28     32       89.07           306.0    
    493      3     28     32       89.07           153.0    
    494      4     28     32       89.07           11.10    
    495      5     28     32       89.07           2.775    
    496      6     28     32       89.07           202.3    
    497      7     28     32       89.07           33.72    
    498      1     28     33       89.07           43.93    
    499      2     28     33       89.07           306.0    
    500      3     28     33       89.07           153.0    
    501      4     28     33       89.07           11.10    
    502      5     28     33       89.07           2.775    
    503      6     28     33       89.07           202.3    
    504      7     28     33       89.07           33.72    
    505      1     29     33       83.15           136.4    
    506      2     29     33       83.15           136.4    
    507      3     29     33       83.15           136.4    
    508      4     29     33       83.15           112.8    
    509      5     29     33       83.15           28.20    
    510      6     29     33       83.15           28.20    
    511      7     29     33       83.15           28.20    
    512      1     28     34       83.15           136.4    
    513      2     28     34       83.15           136.4    
    514      3     28     34       83.15           136.4    
    515      4     28     34       83.15           112.8    
    516      5     28     34       83.15           28.20    
    517      6     28     34       83.15           28.20    
    518      7     28     34       83.15           28.20    
    519      1     29     34       83.15           136.4    
    520      2     29     34       83.15           136.4    
    521      3     29     34       83.15           136.4    
    522      4     29     34       83.15           112.8    
    523      5     29     34       83.15           28.20    
    524      6     29     34       83.15           28.20    
    525      7     29     34       83.15           28.20    
    526      1     30     34       88.46           42.64    
    527      2     30     34       88.46           249.2    
    528      3     30     34       88.46           124.6    
    529      4     30     34       88.46           114.2    
    530      5     30     34       88.46           28.56    
    531      6     30     34       88.46           28.56    
    532      7     30     34       88.46           28.56    
    533      1     30     35       88.26           159.9    
    534      2     30     35       88.26           159.9    
    535      3     30     35       88.26           159.9    
    536      4     30     35       88.26           45.78    
    537      5     30     35       88.26           11.44    
    538      6     30     35       88.26           208.5    
    539      7     30     35       88.26           34.75    
    540      1     31     35       89.56           46.88    
    541      2     31     35       89.56           277.0    
    542      3     31     35       89.56           138.5    
    543      4     31     35       89.56           64.69    
    544      5     31     35       89.56           16.17    
    545      6     31     35       89.56           210.5    
    546      7     31     35       89.56           35.08    
    547      1     32     35       90.04           30.40    
    548      2     32     35       90.04           277.5    
    549      3     32     35       90.04           138.8    
    550      4     32     35       90.04           162.7    
    551      5     32     35       90.04           40.68    
    552      6     32     35       90.04           243.5    
    553      7     32     35       90.04           40.58    
    554      1     30     36       88.26           159.9    
    555      2     30     36       88.26           159.9    
    556      3     30     36       88.26           159.9    
    557      4     30     36       88.26           45.78    
    558      5     30     36       88.26           11.44    
    559      6     30     36       88.26           208.5    
    560      7     30     36       88.26           34.75    
    561      1     31     36       89.56           46.88    
    562      2     31     36       89.56           277.0    
    563      3     31     36       89.56           138.5    
    564      4     31     36       89.56           64.69    
    565      5     31     36       89.56           16.17    
    566      6     31     36       89.56           210.5    
    567      7     31     36       89.56           35.08    
    568      1     32     36       90.24           49.49    
    569      2     32     36       90.24           257.2    
    570      3     32     36       90.24           128.6    
    571      4     32     36       90.24           252.3    
    572      5     32     36       90.24           63.07    
    573      6     32     36       90.24           274.5    
    574      7     32     36       90.24           45.74    
    575      1     31     37       89.43           39.51    
    576      2     31     37       89.43           263.5    
    577      3     31     37       89.43           131.8    
    578      4     31     37       89.43           289.8    
    579      5     31     37       89.43           72.46    
    580      6     31     37       89.43           288.8    
    581      7     31     37       89.43           48.14    
    582      1     32     37       89.43           39.51    
    583      2     32     37       89.43           263.5    
    584      3     32     37       89.43           131.8    
    585      4     32     37       89.43           289.8    
    586      5     32     37       89.43           72.46    
    587      6     32     37       89.43           288.8    
    588      7     32     37       89.43           48.14    
    589      1     31     38       90.74           52.91    
    590      2     31     38       90.74           263.4    
    591      3     31     38       90.74           131.7    
    592      4     31     38       90.74           308.1    
    593      5     31     38       90.74           77.02    
    594      6     31     38       90.74           300.8    
    595      7     31     38       90.74           50.02    
    596      1     32     38       90.74           52.91    
    597      2     32     38       90.74           263.4    
    598      3     32     38       90.74           131.7    
    599      4     32     38       90.74           308.1    
    600      5     32     38       90.74           77.02    
    601      6     32     38       90.74           300.8    
    602      7     32     38       90.74           50.02    
    603      1     33     38       91.17           24.48    
    604      2     33     38       91.17           264.0    
    605      3     33     38       91.17           132.0    
    606      4     33     38       91.17           313.7    
    607      5     33     38       91.17           78.42    
    608      6     33     38       91.17           36.32    
    609      7     33     38       91.17           355.6    
    610      1     34     38       91.13           130.6    
    611      2     34     38       91.13           130.6    
    612      3     34     38       91.13           130.6    
    613      4     34     38       91.13           277.3    
    614      5     34     38       91.13           69.33    
    615      6     34     38       91.13           111.2    
    616      7     34     38       91.13           355.8    
    617      1     35     38       93.00           123.5    
    618      2     35     38       93.00           123.5    
    619      3     35     38       93.00           123.5    
    620      4     35     38       93.00           235.5    
    621      5     35     38       93.00           58.87    
    622      6     35     38       93.00           173.8    
    623      7     35     38       93.00           352.0    
    624      1     36     38       93.54           120.1    
    625      2     36     38       93.54           120.1    
    626      3     36     38       93.54           120.1    
    627      4     36     38       93.54           189.9    
    628      5     36     38       93.54           47.48    
    629      6     36     38       93.54           218.5    
    630      7     36     38       93.54           343.8    
    631      1     31     39       90.74           52.91    
    632      2     31     39       90.74           263.4    
    633      3     31     39       90.74           131.7    
    634      4     31     39       90.74           308.1    
[...]
    707      7     34     41       94.22           368.7    
    708      1     33     42       94.22           154.4    
    709      2     33     42       94.22           154.4    
    710      3     33     42       94.22           154.4    
    711      4     33     42       94.22           203.3    
    712      5     33     42       94.22           50.83    
    713      6     33     42       94.22           167.9    
    714      7     33     42       94.22           368.7    
    715      1     34     42       94.22           154.4    
    716      2     34     42       94.22           154.4    
    717      3     34     42       94.22           154.4    
    718      4     34     42       94.22           203.3    
    719      5     34     42       94.22           50.83    
    720      6     34     42       94.22           167.9    
    721      7     34     42       94.22           368.7    
    722      1     35     42       93.85           141.1    
    723      2     35     42       93.85           141.1    
    724      3     35     42       93.85           141.1    
    725      4     35     42       93.85           174.9    
    726      5     35     42       93.85           43.73    
    727      6     35     42       93.85           217.1    
    728      7     35     42       93.85           359.2    
    729      1     36     42       95.15           164.1    
    730      2     36     42       95.15           164.1    
    731      3     36     42       95.15           164.1    
    732      4     36     42       95.15           149.4    
    733      5     36     42       95.15           37.34    
    734      6     36     42       95.15           196.6    
    735      7     36     42       95.15           365.3    
    736      1     35     43       94.24           175.2    
    737      2     35     43       94.24           175.2    
    738      3     35     43       94.24           175.2    
    739      4     35     43       94.24           148.5    
    740      5     35     43       94.24           37.12    
    741      6     35     43       94.24           179.1    
    742      7     35     43       94.24           371.4    
    743      1     36     43       94.24           175.2    
    744      2     36     43       94.24           175.2    
    745      3     36     43       94.24           175.2    
    746      4     36     43       94.24           148.5    
    747      5     36     43       94.24           37.12    
    748      6     36     43       94.24           179.1    
    749      7     36     43       94.24           371.4    
    750      1     34     44       91.51           167.1    
    751      2     34     44       91.51           167.1    
    752      3     34     44       91.51           167.1    
    753      4     34     44       91.51           124.2    
    754      5     34     44       91.51           31.04    
    755      6     34     44       91.51           248.8    
    756      7     34     44       91.51           375.9    
    757      1     35     44       91.51           167.1    
    758      2     35     44       91.51           167.1    
    759      3     35     44       91.51           167.1    
    760      4     35     44       91.51           124.2    
    761      5     35     44       91.51           31.04    
    762      6     35     44       91.51           248.8    
    763      7     35     44       91.51           375.9    
    764      1     34     45       90.20           164.4    
    765      2     34     45       90.20           164.4    
    766      3     34     45       90.20           164.4    
    767      4     34     45       90.20           107.0    
    768      5     34     45       90.20           26.74    
    769      6     34     45       90.20           306.5    
    770      7     34     45       90.20           386.1    
    771      1     35     45       92.02           34.96    
    772      2     35     45       92.02           298.6    
    773      3     35     45       92.02           149.3    
    774      4     35     45       92.02           78.32    
    775      5     35     45       92.02           19.58    
    776      6     35     45       92.02           337.8    
    777      7     35     45       92.02           380.7    
    778      1     36     45       95.03           167.3    
    779      2     36     45       95.03           167.3    
    780      3     36     45       95.03           167.3    
    781      4     36     45       95.03           80.06    
    782      5     36     45       95.03           20.01    
    783      6     36     45       95.03           300.5    
    784      7     36     45       95.03           374.9    
    785      1     37     45       95.22           172.6    
    786      2     37     45       95.22           172.6    
    787      3     37     45       95.22           172.6    
    788      4     37     45       95.22           62.65    
    789      5     37     45       95.22           15.66    
    790      6     37     45       95.22           316.6    
    791      7     37     45       95.22           378.6    
    792      1     38     45       95.86           162.5    
    793      2     38     45       95.86           162.5    
    794      3     38     45       95.86           162.5    
    795      4     38     45       95.86           74.67    
    796      5     38     45       95.86           18.67    
    797      6     38     45       95.86           383.8    
    798      7     38     45       95.86           397.2    
    799      1     35     46       92.02           34.96    
    800      2     35     46       92.02           298.6    
    801      3     35     46       92.02           149.3    
    802      4     35     46       92.02           78.32    
    803      5     35     46       92.02           19.58    
    804      6     35     46       92.02           337.8    
    805      7     35     46       92.02           380.7    
    806      1     37     46       90.01           146.9    
    807      2     37     46       90.01           146.9    
    808      3     37     46       90.01           146.9    
    809      4     37     46       90.01           66.87    
    810      5     37     46       90.01           16.72    
    811      6     37     46       90.01           427.3    
    812      7     37     46       90.01           392.6    
    813      1     38     46       93.49           30.00    
    814      2     38     46       93.49           280.0    
    815      3     38     46       93.49           140.0    
    816      4     38     46       93.49           80.06    
    817      5     38     46       93.49           20.02    
    818      6     38     46       93.49           423.7    
    819      7     38     46       93.49           408.8    
    820      1     37     47       90.01           146.9    
    821      2     37     47       90.01           146.9    
    822      3     37     47       90.01           146.9    
    823      4     37     47       90.01           66.87    
    824      5     37     47       90.01           16.72    
    825      6     37     47       90.01           427.3    
    826      7     37     47       90.01           392.6    
    827      1     37     48       92.51           35.42    
    828      2     37     48       92.51           260.3    
    829      3     37     48       92.51           130.1    
    830      4     37     48       92.51           100.7    
    831      5     37     48       92.51           25.17    
    832      6     37     48       92.51           461.4    
    833      7     37     48       92.51           449.5    
    834      1     38     48       92.51           35.42    
    835      2     38     48       92.51           260.3    
    836      3     38     48       92.51           130.1    
    837      4     38     48       92.51           100.7    
    838      5     38     48       92.51           25.17    
    839      6     38     48       92.51           461.4    
    840      7     38     48       92.51           449.5    
    841      1     39     48       96.16           143.6    
    842      2     39     48       96.16           143.6    
    843      3     39     48       96.16           143.6    
    844      4     39     48       96.16           107.4    
    845      5     39     48       96.16           26.85    
    846      6     39     48       96.16           452.4    
    847      7     39     48       96.16           423.2    
    848      1     40     48       91.68           132.2    
    849      2     40     48       91.68           132.2    
    850      3     40     48       91.68           132.2    
    851      4     40     48       91.68           117.4    
    852      5     40     48       91.68           29.34    
    853      6     40     48       91.68           418.1    
    854      7     40     48       91.68           484.0    
    855      1     37     49       92.51           35.42    
    856      2     37     49       92.51           260.3    
    857      3     37     49       92.51           130.1    
    858      4     37     49       92.51           100.7    
    859      5     37     49       92.51           25.17    
    860      6     37     49       92.51           461.4    
    861      7     37     49       92.51           449.5    
    862      1     38     49       92.51           35.42    
    863      2     38     49       92.51           260.3    
    864      3     38     49       92.51           130.1    
    865      4     38     49       92.51           100.7    
    866      5     38     49       92.51           25.17    
    867      6     38     49       92.51           461.4    
    868      7     38     49       92.51           449.5    
    869      1     39     49       92.51           35.42    
    870      2     39     49       92.51           260.3    
    871      3     39     49       92.51           130.1    
    872      4     39     49       92.51           100.7    
    873      5     39     49       92.51           25.17    
    874      6     39     49       92.51           461.4    
    875      7     39     49       92.51           449.5    
    876      1     40     49       91.68           132.2    
    877      2     40     49       91.68           132.2    
    878      3     40     49       91.68           132.2    
    879      4     40     49       91.68           117.4    
    880      5     40     49       91.68           29.34    
    881      6     40     49       91.68           418.1    
    882      7     40     49       91.68           484.0    
    883      1     39     50       96.13           142.5    
    884      2     39     50       96.13           142.5    
    885      3     39     50       96.13           142.5    
    886      4     39     50       96.13           132.1    
    887      5     39     50       96.13           33.04    
    888      6     39     50       96.13           329.2    
    889      7     39     50       96.13           646.4    
    890      1     40     50       96.13           142.5    
    891      2     40     50       96.13           142.5    
    892      3     40     50       96.13           142.5    
    893      4     40     50       96.13           132.1    
    894      5     40     50       96.13           33.04    
    895      6     40     50       96.13           329.2    
    896      7     40     50       96.13           646.4    
    897      1     40     51       96.13           142.5    
    898      2     40     51       96.13           142.5    
    899      3     40     51       96.13           142.5    
    900      4     40     51       96.13           132.1    
    901      5     40     51       96.13           33.04    
    902      6     40     51       96.13           329.2    
    903      7     40     51       96.13           646.4    
    904      1     41     51       95.28           141.9    
    905      2     41     51       95.28           141.9    
    906      3     41     51       95.28           141.9    
    907      4     41     51       95.28           129.8    
    908      5     41     51       95.28           32.44    
    909      6     41     51       95.28           280.5    
    910      7     41     51       95.28           737.0    
    911      1     40     52       92.69           17.97    
    912      2     40     52       92.69           272.8    
    913      3     40     52       92.69           136.4    
    914      4     40     52       92.69           115.9    
    915      5     40     52       92.69           28.98    
    916      6     40     52       92.69           302.1    
    917      7     40     52       92.69           782.0    
    918      1     40     53       92.69           17.97    
    919      2     40     53       92.69           272.8    
    920      3     40     53       92.69           136.4    
    921      4     40     53       92.69           115.9    
    922      5     40     53       92.69           28.98    
    923      6     40     53       92.69           302.1    
    924      7     40     53       92.69           782.0    
    925      1     41     53       92.69           17.97    
    926      2     41     53       92.69           272.8    
    927      3     41     53       92.69           136.4    
    928      4     41     53       92.69           115.9    
    929      5     41     53       92.69           28.98    
    930      6     41     53       92.69           302.1    
    931      7     41     53       92.69           782.0    
    932      1     40     54       95.02           47.51    
    933      2     40     54       95.02           286.0    
    934      3     40     54       95.02           143.0    
    935      4     40     54       95.02           81.35    
    936      5     40     54       95.02           20.34    
    937      6     40     54       95.02           370.2    
    938      7     40     54       95.02           354.3    
    939      1     41     54       95.06           36.98    
    940      2     41     54       95.06           290.1    
    941      3     41     54       95.06           145.0    
    942      4     41     54       95.06           82.06    
    943      5     41     54       95.06           20.51    
    944      6     41     54       95.06           317.3    
    945      7     41     54       95.06           840.0    
    946      1     40     55       95.02           47.51    
    947      2     40     55       95.02           286.0    
    948      3     40     55       95.02           143.0    
    949      4     40     55       95.02           81.35    
    950      5     40     55       95.02           20.34    
    951      6     40     55       95.02           370.2    
    952      7     40     55       95.02           354.3    
    953      1     41     55       95.02           47.51    
    954      2     41     55       95.02           286.0    
    955      3     41     55       95.02           143.0    
    956      4     41     55       95.02           81.35    
    957      5     41     55       95.02           20.34    
    958      6     41     55       95.02           370.2    
    959      7     41     55       95.02           354.3    
    960      1     40     56       95.13           46.53    
    961      2     40     56       95.13           293.5    
    962      3     40     56       95.13           146.8    
    963      4     40     56       95.13           73.13    
    964      5     40     56       95.13           18.28    
    965      6     40     56       95.13           397.4    
    966      7     40     56       95.13           337.8    
    967      1     41     56       95.13           46.53    
    968      2     41     56       95.13           293.5    
    969      3     41     56       95.13           146.8    
    970      4     41     56       95.13           73.13    
    971      5     41     56       95.13           18.28    
    972      6     41     56       95.13           397.4    
    973      7     41     56       95.13           337.8    

    973 GHB CELLS



                           RECHARGE
 READING ON UNIT   19 WITH FORMAT: (76E15.6)           
 
 SOLVING FOR HEAD 

    ------------------------------------------------
       NWT REQUIRED           29 OUTER ITERATIONS 
       AND A TOTAL OF         59 INNER ITERATIONS.
    ------------------------------------------------

 OUTPUT CONTROL FOR STRESS PERIOD    1   TIME STEP    1
    SAVE HEAD FOR ALL LAYERS
    PRINT BUDGET
    SAVE BUDGET
 UBDSV1 SAVING "         STORAGE" ON UNIT  53 AT TIME STEP  1, STRESS PERIOD   1
 UBDSV2 SAVING "   CONSTANT HEAD" ON UNIT  53 AT TIME STEP  1, STRESS PERIOD   1
 UBDSV1 SAVING "FLOW RIGHT FACE " ON UNIT  53 AT TIME STEP  1, STRESS PERIOD   1
 UBDSV1 SAVING "FLOW FRONT FACE " ON UNIT  53 AT TIME STEP  1, STRESS PERIOD   1
 UBDSV1 SAVING "FLOW LOWER FACE " ON UNIT  53 AT TIME STEP  1, STRESS PERIOD   1
 UBDSV4 SAVING "           WELLS" ON UNIT  53 AT TIME STEP  1, STRESS PERIOD   1
 UBDSV4 SAVING "   RIVER LEAKAGE" ON UNIT  53 AT TIME STEP  1, STRESS PERIOD   1
 UBDSV4 SAVING " HEAD DEP BOUNDS" ON UNIT  53 AT TIME STEP  1, STRESS PERIOD   1
 UBDSV3 SAVING "        RECHARGE" ON UNIT  53 AT TIME STEP  1, STRESS PERIOD   1

 SAVING SATURATED THICKNESS AND FLOW TERMS ON UNIT   54 FOR MT3DMS
 BY THE LINK-MT3DMS PACKAGE V7 AT TIME STEP    1, STRESS PERIOD    1


 HEAD WILL BE SAVED ON UNIT   51 AT END OF TIME STEP    1, STRESS PERIOD    1
1
  VOLUMETRIC BUDGET FOR ENTIRE MODEL AT END OF TIME STEP    1, STRESS PERIOD   1
  ------------------------------------------------------------------------------

     CUMULATIVE VOLUMES      L**3       RATES FOR THIS TIME STEP      L**3/T
     ------------------                 ------------------------

           IN:                                      IN:
           ---                                      ---
             STORAGE =       25151.2031               STORAGE =       25151.2031
       CONSTANT HEAD =           0.0000         CONSTANT HEAD =           0.0000
               WELLS =           0.0000                 WELLS =           0.0000
       RIVER LEAKAGE =       70599.5312         RIVER LEAKAGE =       70599.5312
     HEAD DEP BOUNDS =       11571.6104       HEAD DEP BOUNDS =       11571.6104
            RECHARGE =       32900.1211              RECHARGE =       32900.1211

            TOTAL IN =      140222.4688              TOTAL IN =      140222.4688

          OUT:                                     OUT:
          ----                                     ----
             STORAGE =       76629.7812               STORAGE =       76629.7812
       CONSTANT HEAD =           0.0000         CONSTANT HEAD =           0.0000
               WELLS =           0.0000                 WELLS =           0.0000
       RIVER LEAKAGE =       19152.6172         RIVER LEAKAGE =       19152.6172
     HEAD DEP BOUNDS =       44439.2266       HEAD DEP BOUNDS =       44439.2266
            RECHARGE =           0.0000              RECHARGE =           0.0000

           TOTAL OUT =      140221.6250             TOTAL OUT =      140221.6250

            IN - OUT =           0.8438              IN - OUT =           0.8438

 PERCENT DISCREPANCY =           0.00     PERCENT DISCREPANCY =           0.00






         TIME SUMMARY AT END OF TIME STEP    1 IN STRESS PERIOD    1
                    SECONDS     MINUTES      HOURS       DAYS        YEARS
                    -----------------------------------------------------------
   TIME STEP LENGTH  86400.      1440.0      24.000     1.00000     2.73785E-03
 STRESS PERIOD TIME  86400.      1440.0      24.000     1.00000     2.73785E-03
         TOTAL TIME  86400.      1440.0      24.000     1.00000     2.73785E-03
1
