                                  MODFLOW-NWT-SWR1 
      U.S. GEOLOGICAL SURVEY MODULAR FINITE-DIFFERENCE GROUNDWATER-FLOW MODEL
                            VERSION 1.0.9 07/01/2014
                    BASED ON MODFLOW-2005 VERSION 1.11.00 08/30/2013

 LIST FILE: GW_link_Integrated.list
                         UNIT    2

 OPENING GW_link_Integrated.dis
 FILE TYPE:DIS   UNIT   11   STATUS:OLD    
 FORMAT:FORMATTED              ACCESS:SEQUENTIAL          

 OPENING GW_link_Integrated.bas
 FILE TYPE:BAS6   UNIT   13   STATUS:OLD    
 FORMAT:FORMATTED              ACCESS:SEQUENTIAL          

 OPENING GW_link_Integrated.nwt
 FILE TYPE:NWT   UNIT   32   STATUS:OLD    
 FORMAT:FORMATTED              ACCESS:SEQUENTIAL          

 OPENING GW_link_Integrated.upw
 FILE TYPE:UPW   UNIT   31   STATUS:OLD    
 FORMAT:FORMATTED              ACCESS:SEQUENTIAL          

 OPENING GW_link_Integrated.oc
 FILE TYPE:OC   UNIT   14   STATUS:OLD    
 FORMAT:FORMATTED              ACCESS:SEQUENTIAL          

 OPENING GW_link_Integrated.ghb
 FILE TYPE:GHB   UNIT   23   STATUS:OLD    
 FORMAT:FORMATTED              ACCESS:SEQUENTIAL          

 OPENING GW_link_Integrated.rch
 FILE TYPE:RCH   UNIT   19   STATUS:OLD    
 FORMAT:FORMATTED              ACCESS:SEQUENTIAL          

 OPENING GW_link_Integrated.riv
 FILE TYPE:RIV   UNIT   18   STATUS:OLD    
 FORMAT:FORMATTED              ACCESS:SEQUENTIAL          

 OPENING GW_link_Integrated.wel
 FILE TYPE:WEL   UNIT   20   STATUS:OLD    
 FORMAT:FORMATTED              ACCESS:SEQUENTIAL          

 OPENING GW_link_Integrated.hds
 FILE TYPE:DATA(BINARY)   UNIT   51   STATUS:REPLACE
 FORMAT:BINARY                 ACCESS:SEQUENTIAL          

 OPENING GW_link_Integrated.cbc
 FILE TYPE:DATA(BINARY)   UNIT   53   STATUS:REPLACE
 FORMAT:BINARY                 ACCESS:SEQUENTIAL          

 BAS -- BASIC PACKAGE, VERSION 7, 5/2/2005 INPUT READ FROM UNIT   13
 
 MODFLOW was compiled using mixed precision
 Precision of REAL variables:           6
 Precision of DOUBLE PRECISION variables:          15

 DISCRETIZATION INPUT DATA READ FROM UNIT   11
 # DIS package for  MODFLOW-NWT, generated by Flopy.
    7 LAYERS        28 ROWS        16 COLUMNS
    1 STRESS PERIOD(S) IN SIMULATION
 MODEL TIME UNIT IS DAYS
 MODEL LENGTH UNIT IS METERS
  Confining bed flag for each layer:
   0   0   0   0   0   0   0

                     DELR =   5000.00    

                     DELC =   5000.00    



           TOP ELEVATION OF LAYER 1
 READING ON UNIT   11 WITH FORMAT: (16E15.6)           



             MODEL LAYER BOTTOM EL. FOR LAYER   1
 READING ON UNIT   11 WITH FORMAT: (16E15.6)           



             MODEL LAYER BOTTOM EL. FOR LAYER   2
 READING ON UNIT   11 WITH FORMAT: (16E15.6)           



             MODEL LAYER BOTTOM EL. FOR LAYER   3
 READING ON UNIT   11 WITH FORMAT: (16E15.6)           



             MODEL LAYER BOTTOM EL. FOR LAYER   4
 READING ON UNIT   11 WITH FORMAT: (16E15.6)           



             MODEL LAYER BOTTOM EL. FOR LAYER   5
 READING ON UNIT   11 WITH FORMAT: (16E15.6)           



             MODEL LAYER BOTTOM EL. FOR LAYER   6
 READING ON UNIT   11 WITH FORMAT: (16E15.6)           



             MODEL LAYER BOTTOM EL. FOR LAYER   7
 READING ON UNIT   11 WITH FORMAT: (16E15.6)           


 STRESS PERIOD     LENGTH       TIME STEPS     MULTIPLIER FOR DELT    SS FLAG
 ----------------------------------------------------------------------------
        1        1.0000000          1                    1.000         TR

 TRANSIENT SIMULATION



 
 # BAS6 package for  MODFLOW-NWT, generated by Flopy.                            
 THE FREE FORMAT OPTION HAS BEEN SELECTED



                     BOUNDARY ARRAY FOR LAYER   1
 READING ON UNIT   13 WITH FORMAT: (16I10)             



                     BOUNDARY ARRAY FOR LAYER   2
 READING ON UNIT   13 WITH FORMAT: (16I10)             



                     BOUNDARY ARRAY FOR LAYER   3
 READING ON UNIT   13 WITH FORMAT: (16I10)             



                     BOUNDARY ARRAY FOR LAYER   4
 READING ON UNIT   13 WITH FORMAT: (16I10)             



                     BOUNDARY ARRAY FOR LAYER   5
 READING ON UNIT   13 WITH FORMAT: (16I10)             



                     BOUNDARY ARRAY FOR LAYER   6
 READING ON UNIT   13 WITH FORMAT: (16I10)             



                     BOUNDARY ARRAY FOR LAYER   7
 READING ON UNIT   13 WITH FORMAT: (16I10)             

 AQUIFER HEAD WILL BE SET TO  -999.99     AT ALL NO-FLOW NODES (IBOUND=0).



                       INITIAL HEAD FOR LAYER   1
 READING ON UNIT   13 WITH FORMAT: (16E15.6)           



                       INITIAL HEAD FOR LAYER   2
 READING ON UNIT   13 WITH FORMAT: (16E15.6)           



                       INITIAL HEAD FOR LAYER   3
 READING ON UNIT   13 WITH FORMAT: (16E15.6)           



                       INITIAL HEAD FOR LAYER   4
 READING ON UNIT   13 WITH FORMAT: (16E15.6)           



                       INITIAL HEAD FOR LAYER   5
 READING ON UNIT   13 WITH FORMAT: (16E15.6)           



                       INITIAL HEAD FOR LAYER   6
 READING ON UNIT   13 WITH FORMAT: (16E15.6)           



                       INITIAL HEAD FOR LAYER   7
 READING ON UNIT   13 WITH FORMAT: (16E15.6)           
 # OC package for  MODFLOW-NWT, generated by Flopy.

 OUTPUT CONTROL IS SPECIFIED ONLY AT TIME STEPS FOR WHICH OUTPUT IS DESIRED
 COMPACT CELL-BY-CELL BUDGET FILES WILL BE WRITTEN
 AUXILIARY DATA WILL BE SAVED IN CELL-BY-CELL BUDGET FILES
 HEAD PRINT FORMAT CODE IS   0    DRAWDOWN PRINT FORMAT CODE IS   0
 HEADS WILL BE SAVED ON UNIT   51    DRAWDOWNS WILL BE SAVED ON UNIT    0
 # NWT package for  MODFLOW-NWT, generated by Flopy.

 NWT1 -- Newton Solver, VERSION 1.0.9, 07/01/2014
         INPUT READ FROM UNIT 32

 COMPLEX OPTION:
 DEFAULT SOLVER INPUT VALUES REFLECT STRONGLY NONLINEAR MODEL
 ***XMD linear solver will be used***
 
   CONVERGENCE CRITERION OF   0.100000E-02 FOR HEAD SOLUTION
   AND A TOLERANCE OF   0.100000E+05 FOR FLOW SOLUTION AND 
   A MAXIMUM OF 10000 OUTER ITERATIONS. 


   D-B-D REDUCTION FACTOR OF    0.850000E+00 AND 
   A D-B-D INCREASE FACTOR OF    0.100000E-04 AND 
   A D-B-D RELAXATION OF    0.000000E+00 AND 
   A MOMENTUM FACTOR OF    0.100000E+00 .


   BACKTRACKING IS ACTIVE 
   THE MAXIMUM NUMBER OF BACKTRACKS IS    50 AND 
   THE BACKTRACKING TOLERANCE IS    0.110000E+01 AND
   THE BACKTRACKING REDUCTION FACTOR IS    0.700000E+00

 XMD -- LINEAR SOLUTION BY XMD PACKAGE VERSION 1.30
     BY MOTOMU IBARAKI, OHIO STATE UNIVERSITY, COLOMBUS, OH
                 INPUT READ FROM UNIT 32
 ACCELERATION METHOD                    (IACL) =         2
 NODE ORDERING FLAG                   (NORDER) =         1
 LEVEL OF FILL                         (LEVEL) =         5
 MAXIMUM NUMBER OF ORTHOGONALIZATIONS  (NORTH) =         7
 INDEX FOR USING REDUCED SYSTEM      (IREDSYS) =         1
 RESID. REDUCTION CONVERGE CRITERION  (RRCTOL) =  0.000000E+00
 INDEX FOR USING DROP TOLERANCE     (IDROPTOL) =         1
 DROP TOLERANCE VALUE                  (EPSRN) =  0.100000E-04
 CONVERGENCE CRITERIA OF           (HCLOSEXMD) =  0.100000E-04
 MAX. NUMBER OF LINEAR ITERATIONS  (MXITERXMD) =        50


 UPW1 -- UPSTREAM WEIGHTING FLOW PACKAGE, VERSION 1.0.6, 12/05/2012
         INPUT READ FROM UNIT 31

 # UPW package for  MODFLOW-NWT, generated by Flopy.
 No named parameters

   LAYER FLAGS:
 LAYER       LAYTYP          LAYAVG    CHANI           LAYVKA           LAYWET
 ---------------------------------------------------------------------------
    1             1             0     1.000E+00             0             0
    2             1             0     1.000E+00             0             0
    3             1             0     1.000E+00             0             0
    4             1             0     1.000E+00             0             0
    5             1             0     1.000E+00             0             0
    6             1             0     1.000E+00             0             0
    7             1             0     1.000E+00             0             0

   INTERPRETATION OF LAYER FLAGS:
                        INTERBLOCK     HORIZONTAL    DATA IN
         LAYER TYPE   TRANSMISSIVITY   ANISOTROPY   ARRAY VKA   WETTABILITY
 LAYER   (LAYTYP)        (LAYAVG)      (CHANI)     (LAYVKA)       (LAYWET)
 ---------------------------------------------------------------------------
    1   CONVERTIBLE      HARMONIC     1.000E+00    VERTICAL K  NON-WETTABLE
    2   CONVERTIBLE      HARMONIC     1.000E+00    VERTICAL K  NON-WETTABLE
    3   CONVERTIBLE      HARMONIC     1.000E+00    VERTICAL K  NON-WETTABLE
    4   CONVERTIBLE      HARMONIC     1.000E+00    VERTICAL K  NON-WETTABLE
    5   CONVERTIBLE      HARMONIC     1.000E+00    VERTICAL K  NON-WETTABLE
    6   CONVERTIBLE      HARMONIC     1.000E+00    VERTICAL K  NON-WETTABLE
    7   CONVERTIBLE      HARMONIC     1.000E+00    VERTICAL K  NON-WETTABLE



              HYD. COND. ALONG ROWS FOR LAYER   1
 READING ON UNIT   31 WITH FORMAT: (16E15.6)           



                VERTICAL HYD. COND. FOR LAYER   1
 READING ON UNIT   31 WITH FORMAT: (16E15.6)           



                   SPECIFIC STORAGE FOR LAYER   1
 READING ON UNIT   31 WITH FORMAT: (16E15.6)           



                     SPECIFIC YIELD FOR LAYER   1
 READING ON UNIT   31 WITH FORMAT: (16E15.6)           



              HYD. COND. ALONG ROWS FOR LAYER   2
 READING ON UNIT   31 WITH FORMAT: (16E15.6)           



                VERTICAL HYD. COND. FOR LAYER   2
 READING ON UNIT   31 WITH FORMAT: (16E15.6)           



                   SPECIFIC STORAGE FOR LAYER   2
 READING ON UNIT   31 WITH FORMAT: (16E15.6)           



                     SPECIFIC YIELD FOR LAYER   2
 READING ON UNIT   31 WITH FORMAT: (16E15.6)           



              HYD. COND. ALONG ROWS FOR LAYER   3
 READING ON UNIT   31 WITH FORMAT: (16E15.6)           



                VERTICAL HYD. COND. FOR LAYER   3
 READING ON UNIT   31 WITH FORMAT: (16E15.6)           



                   SPECIFIC STORAGE FOR LAYER   3
 READING ON UNIT   31 WITH FORMAT: (16E15.6)           



                     SPECIFIC YIELD FOR LAYER   3
 READING ON UNIT   31 WITH FORMAT: (16E15.6)           



              HYD. COND. ALONG ROWS FOR LAYER   4
 READING ON UNIT   31 WITH FORMAT: (16E15.6)           



                VERTICAL HYD. COND. FOR LAYER   4
 READING ON UNIT   31 WITH FORMAT: (16E15.6)           



                   SPECIFIC STORAGE FOR LAYER   4
 READING ON UNIT   31 WITH FORMAT: (16E15.6)           



                     SPECIFIC YIELD FOR LAYER   4
 READING ON UNIT   31 WITH FORMAT: (16E15.6)           



              HYD. COND. ALONG ROWS FOR LAYER   5
 READING ON UNIT   31 WITH FORMAT: (16E15.6)           



                VERTICAL HYD. COND. FOR LAYER   5
 READING ON UNIT   31 WITH FORMAT: (16E15.6)           



                   SPECIFIC STORAGE FOR LAYER   5
 READING ON UNIT   31 WITH FORMAT: (16E15.6)           



                     SPECIFIC YIELD FOR LAYER   5
 READING ON UNIT   31 WITH FORMAT: (16E15.6)           



              HYD. COND. ALONG ROWS FOR LAYER   6
 READING ON UNIT   31 WITH FORMAT: (16E15.6)           



                VERTICAL HYD. COND. FOR LAYER   6
 READING ON UNIT   31 WITH FORMAT: (16E15.6)           



                   SPECIFIC STORAGE FOR LAYER   6
 READING ON UNIT   31 WITH FORMAT: (16E15.6)           



                     SPECIFIC YIELD FOR LAYER   6
 READING ON UNIT   31 WITH FORMAT: (16E15.6)           



              HYD. COND. ALONG ROWS FOR LAYER   7
 READING ON UNIT   31 WITH FORMAT: (16E15.6)           



                VERTICAL HYD. COND. FOR LAYER   7
 READING ON UNIT   31 WITH FORMAT: (16E15.6)           



                   SPECIFIC STORAGE FOR LAYER   7
 READING ON UNIT   31 WITH FORMAT: (16E15.6)           



                     SPECIFIC YIELD FOR LAYER   7
 READING ON UNIT   31 WITH FORMAT: (16E15.6)           

 WEL -- WELL PACKAGE, VERSION 1.0.6, 12/05/2012 INPUT READ FROM UNIT   20
 # WEL package for  MODFLOW-NWT, generated by Flopy.
 No named parameters
 MAXIMUM OF     76 ACTIVE WELLS AT ONE TIME
 CELL-BY-CELL FLOWS WILL BE SAVED ON UNIT   53
 No named parameters
  PHIRAMP WILL BE SET TO A DEFAULT VALUE OF 0.05
  WELLS WITH REDUCED PUMPING WILL BE REPORTED TO THE MAIN LISTING FILE


     0 Well parameters

 RIV -- RIVER PACKAGE, VERSION 7, 5/2/2005 INPUT READ FROM UNIT   18
 # RIV package for  MODFLOW-NWT, generated by Flopy.
 No named parameters
 MAXIMUM OF     41 ACTIVE RIVER REACHES AT ONE TIME
 CELL-BY-CELL FLOWS WILL BE SAVED ON UNIT   53


     0 River parameters

 GHB -- GENERAL-HEAD BOUNDARY PACKAGE, VERSION 7, 5/2/2005
         INPUT READ FROM UNIT   23
 # GHB package for  MODFLOW-NWT, generated by Flopy.
 No named parameters
 MAXIMUM OF     98 ACTIVE GHB CELLS AT ONE TIME
 CELL-BY-CELL FLOWS WILL BE SAVED ON UNIT   53


     0 GHB parameters

 RCH -- RECHARGE PACKAGE, VERSION 7, 5/2/2005 INPUT READ FROM UNIT   19
 # RCH package for  MODFLOW-NWT, generated by Flopy.
 No named parameters
 OPTION 3 -- RECHARGE TO HIGHEST ACTIVE NODE IN EACH VERTICAL COLUMN
 CELL-BY-CELL FLOWS WILL BE SAVED ON UNIT   53


     0 Recharge parameters
1
                            STRESS PERIOD NO.    1, LENGTH =  1.0000000    
                            -----------------------------------------------

                              NUMBER OF TIME STEPS =     1

                               MULTIPLIER FOR DELT =     1.000

                            INITIAL TIME STEP SIZE =  1.0000000    

 WELL NO.  LAYER   ROW   COL   STRESS RATE         
 --------------------------------------------------
      1      4     15      6       0.000    
      2      4     15      6       0.000    
      3      6     20      6       0.000    
      4      6     20      6       0.000    
      5      6     20      6       0.000    
      6      1     21      6       0.000    
      7      4     11      7       0.000    
      8      3     11      7       0.000    
      9      3     21      7       0.000    
     10      3     21      7       0.000    
     11      4      9      8       0.000    
     12      4     11      8       0.000    
     13      6     11      8       0.000    
     14      4     11      8       0.000    
     15      4     12      8       0.000    
     16      4     12      8       0.000    
     17      4     12      8       0.000    
     18      4     12      8       0.000    
     19      4     13      8       0.000    
     20      4     14      8       0.000    
     21      4     14      8       0.000    
     22      3     15      8       0.000    
     23      4     15      8       0.000    
     24      4     16      8       0.000    
     25      4     17      8       0.000    
     26      4     17      8       0.000    
     27      4     18      8       0.000    
     28      4     18      8       0.000    
     29      4     19      8       0.000    
     30      4     10      9       0.000    
     31      4     10      9       0.000    
     32      4     10      9       0.000    
     33      5     11      9       0.000    
     34      4     11      9       0.000    
     35      4     11      9       0.000    
     36      5     12      9       0.000    
     37      6     12      9       0.000    
     38      5     12      9       0.000    
     39      6     12      9       0.000    
     40      6     13      9       0.000    
     41      7     13      9       0.000    
     42      3     13      9       0.000    
     43      4     13      9       0.000    
     44      4     13      9       0.000    
     45      3     13      9       0.000    
     46      7     13      9       0.000    
     47      6     13      9       0.000    
     48      3     14      9       0.000    
     49      3     14      9       0.000    
     50      7     14      9       0.000    
     51      7     14      9       0.000    
     52      7     14      9       0.000    
     53      7     14      9       0.000    
     54      7     14      9       0.000    
     55      3     14      9       0.000    
     56      6     14      9       0.000    
     57      3     14      9       0.000    
     58      3     14      9       0.000    
     59      6     14      9       0.000    
     60      3     14      9       0.000    
     61      7     14      9       0.000    
     62      4     14      9       0.000    
     63      3     14      9       0.000    
     64      6     15      9       0.000    
     65      4     15      9       0.000    
     66      4     15      9       0.000    
     67      6     15      9       0.000    
     68      4     15      9       0.000    
     69      6     15      9       0.000    
     70      3      9     10       0.000    
     71      3     10     10       0.000    
     72      4     11     11       0.000    
     73      4     11     11       0.000    
     74      4     11     11       0.000    
     75      4     11     11       0.000    
     76      5     12     11       0.000    

     76 WELLS

 REACH NO.  LAYER   ROW   COL     STAGE      CONDUCTANCE     BOTTOM EL.         
 -------------------------------------------------------------------------------
      1      1     24      6      0.4062E+06       160.3          0.4062E+06
      2      1     19      7      0.4062E+06       147.9          0.4062E+06
      3      1     20      7      0.4062E+06       3353.          0.4062E+06
      4      1     21      7      0.4062E+06       3336.          0.4062E+06
      5      1     22      7      0.4062E+06       2857.          0.4062E+06
      6      1     23      7      0.4062E+06       3010.          0.4062E+06
      7      1     24      7      0.4062E+06       3434.          0.4062E+06
      8      1     16      8      0.4062E+06       151.4          0.4062E+06
      9      1     17      8      0.4062E+06       4648.          0.4062E+06
     10      1     18      8      0.4062E+06       5177.          0.4062E+06
     11      1     19      8      0.4062E+06       3867.          0.4062E+06
     12      1     20      8      0.4062E+06       118.5          0.4062E+06
     13      1     15      9      0.4062E+06       3057.          0.4062E+06
     14      1     16      9      0.4062E+06       5210.          0.4062E+06
     15      1     17      9      0.4062E+06       565.2          0.4062E+06
     16      1     18      9      0.4062E+06       278.4          0.4062E+06
     17      1      8     10      0.4062E+06       876.2          0.4062E+06
     18      1      9     10      0.4062E+06       3674.          0.4062E+06
     19      1     10     10      0.4062E+06       1474.          0.4062E+06
     20      1     11     10      0.4062E+06       1133.          0.4062E+06
     21      1     12     10      0.4062E+06       4840.          0.4062E+06
     22      1     13     10      0.4062E+06       4399.          0.4062E+06
     23      1     14     10      0.4062E+06       3541.          0.4062E+06
     24      1     15     10      0.4063E+06       1750.          0.4063E+06
     25      1      9     11      0.4063E+06       1498.          0.4063E+06
     26      1     10     11      0.4063E+06       3208.          0.4063E+06
     27      1     11     11      0.4063E+06       3814.          0.4063E+06
     28      1      1      2       79.12           62.76           79.02    
     29      1      1      3       80.94           7783.           80.84    
     30      1      2      3       80.98           968.4           80.88    
     31      1      3      4       83.18           7049.           83.08    
     32      1      4      4       83.93           3202.           83.83    
     33      1      5      5       84.29           2818.           84.19    
     34      1      5      6       84.55           8091.           84.45    
     35      1      6      6       87.41           1535.           87.31    
     36      1      7      7       91.03           201.2           90.93    
     37      1      7      8       91.10           9602.           91.00    
     38      1      8      8       94.21           514.2           94.11    
     39      1      8      9       95.60           2260.           95.50    
     40      1      8     10       92.74           6959.           92.64    
     41      1      9     11       96.61           1813.           96.51    

     41 RIVER REACHES

 BOUND. NO. LAYER   ROW   COL     STAGE      CONDUCTANCE         
 ----------------------------------------------------------------
      1      1      1      2       79.14           198.3    
      2      2      1      2       79.14           942.3    
      3      3      1      2       79.14           471.2    
      4      4      1      2       79.14           458.6    
      5      5      1      2       79.14           261.5    
      6      6      1      2       79.14           3303.    
      7      7      1      2       79.14           2278.    
      8      1      1      3       80.96           80.36    
      9      2      1      3       80.96           1136.    
     10      3      1      3       80.96           568.0    
     11      4      1      3       80.96           586.1    
     12      5      1      3       80.96           146.5    
     13      6      1      3       80.96           3991.    
     14      7      1      3       80.96           250.0    
     15      1      2      3       81.00           77.96    
     16      2      2      3       81.00           1087.    
     17      3      2      3       81.00           543.3    
     18      4      2      3       81.00           841.5    
     19      5      2      3       81.00           210.4    
     20      6      2      3       81.00           3303.    
     21      7      2      3       81.00           2432.    
     22      1      3      4       83.20           186.6    
     23      2      3      4       83.20           1288.    
     24      3      3      4       83.20           643.8    
     25      4      3      4       83.20           760.1    
     26      5      3      4       83.20           190.0    
     27      6      3      4       83.20           2435.    
     28      7      3      4       83.20           2231.    
     29      1      4      4       83.95           75.00    
     30      2      4      4       83.95           1604.    
     31      3      4      4       83.95           802.1    
     32      4      4      4       83.95           416.5    
     33      5      4      4       83.95           104.1    
     34      6      4      4       83.95           1545.    
     35      7      4      4       83.95           1887.    
     36      1      5      5       84.31           75.00    
     37      2      5      5       84.31           1792.    
     38      3      5      5       84.31           895.9    
     39      4      5      5       84.31           616.0    
     40      5      5      5       84.31           154.0    
     41      6      5      5       84.31           1367.    
     42      7      5      5       84.31           2014.    
     43      1      5      6       84.57           865.9    
     44      2      5      6       84.57           865.9    
     45      3      5      6       84.57           865.9    
     46      4      5      6       84.57           814.8    
     47      5      5      6       84.57           203.7    
     48      6      5      6       84.57           1253.    
     49      7      5      6       84.57           2003.    
     50      1      6      6       87.43           780.7    
     51      2      6      6       87.43           780.7    
     52      3      6      6       87.43           780.7    
     53      4      6      6       87.43           777.1    
     54      5      6      6       87.43           194.3    
     55      6      6      6       87.43           24.91    
     56      7      6      6       87.43           1451.    
     57      1      7      7       91.05           744.0    
     58      2      7      7       91.05           744.0    
     59      3      7      7       91.05           744.0    
     60      4      7      7       91.05           182.4    
     61      5      7      7       91.05           45.60    
     62      6      7      7       91.05           973.3    
     63      7      7      7       91.05           162.2    
     64      1      7      8       91.12           116.1    
     65      2      7      8       91.12           1322.    
     66      3      7      8       91.12           661.1    
     67      4      7      8       91.12           1573.    
     68      5      7      8       91.12           393.2    
     69      6      7      8       91.12           175.6    
     70      7      7      8       91.12           1777.    
     71      1      8      8       94.23           621.0    
     72      2      8      8       94.23           621.0    
     73      3      8      8       94.23           621.0    
     74      4      8      8       94.23           825.3    
     75      5      8      8       94.23           206.3    
     76      6      8      8       94.23           997.3    
     77      7      8      8       94.23           1651.    
     78      1      8      9       95.62           936.9    
     79      2      8      9       95.62           936.9    
     80      3      8      9       95.62           936.9    
     81      4      8      9       95.62           580.3    
     82      5      8      9       95.62           145.1    
     83      6      8      9       95.62           957.8    
     84      7      8      9       95.62           1868.    
     85      1      8     10       92.76           181.9    
     86      2      8     10       92.76           1301.    
     87      3      8     10       92.76           650.6    
     88      4      8     10       92.76           502.6    
     89      5      8     10       92.76           125.6    
     90      6      8     10       92.76           2308.    
     91      7      8     10       92.76           2243.    
     92      1      9     11       96.63           790.0    
     93      2      9     11       96.63           790.0    
     94      3      9     11       96.63           790.0    
     95      4      9     11       96.63           349.7    
     96      5      9     11       96.63           87.43    
     97      6      9     11       96.63           1341.    
     98      7      9     11       96.63           4185.    

     98 GHB CELLS



                           RECHARGE
 READING ON UNIT   19 WITH FORMAT: (16E15.6)           
 
 SOLVING FOR HEAD 
                                                   Max.-Head-Change                        Max.-Flux-Residual
  Residual-Control   Outer-Iter.   Inner-Iter.     Column Row Layer    Max.-Head-Change    Column Row Layer    Max.-Flux-Residual            L2-New               L2-Old           Solver-Max-Delh
          0                 1           2             6    5     1      -0.3586662779E-02       8    7    1      -0.3002033251E+07      0.7273336390E+07      0.0000000000E+00     -0.3586662779E-02
          0                 2           2             6    5     1       0.3097570412E-03       8    7    1       0.3002033403E+06      0.7273336132E+06      0.7273336390E+07      0.3097570412E-03
          0                 3           1             6    5     1       0.1548800723E-04       8    7    1       0.1501015927E+05      0.3636666156E+05      0.7273336132E+06      0.1548800723E-04

    ------------------------------------------------
       NWT REQUIRED            3 OUTER ITERATIONS 
       AND A TOTAL OF          5 INNER ITERATIONS.
    ------------------------------------------------

 OUTPUT CONTROL FOR STRESS PERIOD    1   TIME STEP    1
    SAVE HEAD FOR ALL LAYERS
    PRINT BUDGET
    SAVE BUDGET
 UBDSV4 SAVING "           WELLS" ON UNIT  53 AT TIME STEP  1, STRESS PERIOD   1
 UBDSV4 SAVING "   RIVER LEAKAGE" ON UNIT  53 AT TIME STEP  1, STRESS PERIOD   1
 UBDSV4 SAVING " HEAD DEP BOUNDS" ON UNIT  53 AT TIME STEP  1, STRESS PERIOD   1
 UBDSV3 SAVING "        RECHARGE" ON UNIT  53 AT TIME STEP  1, STRESS PERIOD   1

 HEAD WILL BE SAVED ON UNIT   51 AT END OF TIME STEP    1, STRESS PERIOD    1
1
  VOLUMETRIC BUDGET FOR ENTIRE MODEL AT END OF TIME STEP    1, STRESS PERIOD   1
  ------------------------------------------------------------------------------

     CUMULATIVE VOLUMES      L**3       RATES FOR THIS TIME STEP      L**3/T
     ------------------                 ------------------------

           IN:                                      IN:
           ---                                      ---
             STORAGE =    45661656.0000               STORAGE =    45661656.0000
       CONSTANT HEAD =           0.0000         CONSTANT HEAD =           0.0000
               WELLS =           0.0000                 WELLS =           0.0000
       RIVER LEAKAGE =       69578.4219         RIVER LEAKAGE =       69578.4219
     HEAD DEP BOUNDS =           0.0000       HEAD DEP BOUNDS =           0.0000
            RECHARGE =           3.7598              RECHARGE =           3.7598

            TOTAL IN =    45731240.0000              TOTAL IN =    45731240.0000

          OUT:                                     OUT:
          ----                                     ----
             STORAGE =       67225.0859               STORAGE =       67225.0859
       CONSTANT HEAD =           0.0000         CONSTANT HEAD =           0.0000
               WELLS =           0.0000                 WELLS =           0.0000
       RIVER LEAKAGE =    16541105.0000         RIVER LEAKAGE =    16541105.0000
     HEAD DEP BOUNDS =    29111514.0000       HEAD DEP BOUNDS =    29111514.0000
            RECHARGE =           0.0000              RECHARGE =           0.0000

           TOTAL OUT =    45719844.0000             TOTAL OUT =    45719844.0000

            IN - OUT =       11396.0000              IN - OUT =       11396.0000

 PERCENT DISCREPANCY =           0.02     PERCENT DISCREPANCY =           0.02






         TIME SUMMARY AT END OF TIME STEP    1 IN STRESS PERIOD    1
                    SECONDS     MINUTES      HOURS       DAYS        YEARS
                    -----------------------------------------------------------
   TIME STEP LENGTH  86400.      1440.0      24.000     1.00000     2.73785E-03
 STRESS PERIOD TIME  86400.      1440.0      24.000     1.00000     2.73785E-03
         TOTAL TIME  86400.      1440.0      24.000     1.00000     2.73785E-03
1

 Run end date and time (yyyy/mm/dd hh:mm:ss): 2017/07/27 18:22:33
 Elapsed run time:  0.046 Seconds

